@<TRIPOS>MOLECULE
A92_351_3L3M
   45    48     0     0     0
SMALL
USER_CHARGES

@<TRIPOS>ATOM
      1 C1         23.1200    7.5990   24.0440 C.ar      1 <0>        -0.0589
      2 C2         22.8040    8.7820   23.4140 C.ar      1 <0>        -0.0477
      3 C3         24.0070    7.5420   25.0950 C.ar      1 <0>        -0.0344
      4 C4         27.3410   12.9870   28.4090 C.ar      1 <0>        -0.0524
      5 C5         26.4820   12.3000   27.5780 C.ar      1 <0>        -0.0481
      6 C6         28.6460   11.0240   28.6900 C.ar      1 <0>        -0.0173
      7 C7         29.7750   13.6030   32.2360 C.3       1 <0>        -0.0428
      8 C8         30.1780   15.0010   31.8350 C.3       1 <0>        -0.0124
      9 C9         28.7530   13.0680   31.2650 C.3       1 <0>        -0.0052
     10 C10        30.6730   15.0210   30.4090 C.3       1 <0>        -0.0331
     11 C11        28.4250   12.3500   28.9680 C.ar      1 <0>         0.0029
     12 C12        26.6910   10.9670   27.3020 C.ar      1 <0>         0.0502
     13 C13        23.3840    9.9690   23.7940 C.ar      1 <0>         0.0597
     14 C14        24.5840    8.7360   25.4850 C.ar      1 <0>         0.0878
     15 C15        27.7860   10.3430   27.8630 C.ar      1 <0>         0.1342
     16 C16        24.2810    9.9110   24.8340 C.ar      1 <0>         0.0704
     17 C17        25.7690   10.2530   26.4470 C.2       1 <0>         0.1336
     18 C18        29.3590   13.0510   29.8860 C.3       1 <0>         0.0033
     19 C19        23.0150   11.2080   23.1100 C.2       1 <0>         0.2434
     20 N1         23.7070   12.3020   23.5630 N.am      1 <0>        -0.3253
     21 N2         25.0340   10.8580   25.4660 N.pl3     1 <0>        -0.2966
     22 N3         25.4970    8.9650   26.4760 N.2       1 <0>        -0.2299
     23 N4         29.6010   14.4680   29.5490 N.4       1 <0>         0.2325
     24 O1         22.1520   11.1890   22.2410 O.2       1 <0>        -0.2704
     25 F1         28.0630    9.0520   27.6280 F         1 <0>        -0.2047
     26 H1         22.6564    6.6855   23.7021 H         1 <0>         0.0618
     27 H2         22.0871    8.7772   22.6063 H         1 <0>         0.0626
     28 H3         24.2404    6.6110   25.5901 H         1 <0>         0.0639
     29 H4         27.1622   14.0305   28.6224 H         1 <0>         0.0622
     30 H5         25.6379   12.8115   27.1396 H         1 <0>         0.0625
     31 H6         29.4959   10.5162   29.1214 H         1 <0>         0.0651
     32 H7         30.6613   12.9516   32.2284 H         1 <0>         0.0269
     33 H8         29.3417   13.6241   33.2468 H         1 <0>         0.0269
     34 H9         29.3065   15.6664   31.9232 H         1 <0>         0.0317
     35 H10        30.9819   15.3490   32.5003 H         1 <0>         0.0317
     36 H11        28.4632   12.0475   31.5558 H         1 <0>         0.0323
     37 H12        27.8619   13.7130   31.2710 H         1 <0>         0.0323
     38 H13        30.9050   16.0525   30.1053 H         1 <0>         0.0814
     39 H14        31.5826   14.4092   30.3174 H         1 <0>         0.0814
     40 H15        30.3101   12.5036   29.8101 H         1 <0>         0.0903
     41 H16        23.5246   13.2051   23.1743 H         1 <0>         0.1453
     42 H17        24.3940   12.1966   24.2820 H         1 <0>         0.1453
     43 H18        25.0460   11.8337   25.2473 H         1 <0>         0.1537
     44 H19        28.7602   14.9896   29.6939 H         1 <0>         0.2020
     45 H20        29.8790   14.5361   28.5908 H         1 <0>         0.2020
@<TRIPOS>BOND
     1    1    2 ar
     2    1    3 ar
     3    2   13 ar
     4    3   14 ar
     5    4    5 ar
     6    4   11 ar
     7    5   12 ar
     8    6   11 ar
     9    6   15 ar
    10    7    8 1
    11    7    9 1
    12    8   10 1
    13    9   18 1
    14   10   23 1
    15   11   18 1
    16   12   15 ar
    17   12   17 1
    18   13   16 ar
    19   13   19 1
    20   14   16 ar
    21   14   22 1
    22   15   25 1
    23   16   21 1
    24   17   21 1
    25   17   22 2
    26   18   23 1
    27   19   20 am
    28   19   24 2
    29    1   26 1
    30    2   27 1
    31    3   28 1
    32    4   29 1
    33    5   30 1
    34    6   31 1
    35    7   32 1
    36    7   33 1
    37    8   34 1
    38    8   35 1
    39    9   36 1
    40    9   37 1
    41   10   38 1
    42   10   39 1
    43   18   40 1
    44   20   41 1
    45   20   42 1
    46   21   43 1
    47   23   44 1
    48   23   45 1
