@<TRIPOS>MOLECULE
KEU_510_1NJS
   62    63     0     0     0
SMALL
USER_CHARGES

@<TRIPOS>ATOM
      1 C1         72.5060   24.0940   31.8190 C.ar      1 <0>        -0.0574
      2 C2         73.7620   21.8770   31.2140 C.ar      1 <0>        -0.0574
      3 C3         73.0940   24.0280   33.1320 C.ar      1 <0>        -0.0494
      4 C4         74.3460   21.8270   32.5030 C.ar      1 <0>        -0.0494
      5 C5         74.4790   23.5450   28.1090 C.3       1 <0>        -0.0481
      6 C6         75.2560   23.5310   26.7410 C.3       1 <0>        -0.0195
      7 C7         73.4310   22.2360   28.3980 C.3       1 <0>        -0.0407
      8 C8         75.9560   20.7030   37.0350 C.3       1 <0>        -0.0241
      9 C9         74.4610   20.4780   37.2500 C.3       1 <0>        -0.0112
     10 C10        72.8640   22.9760   30.8200 C.ar      1 <0>        -0.0388
     11 C11        74.0250   22.9100   33.4760 C.ar      1 <0>         0.0367
     12 C12        76.5150   24.2100   27.1830 C.2       1 <0>         0.0541
     13 C13        77.8090   23.9140   27.8210 C.2       1 <0>         0.1277
     14 C14        76.4070   25.5120   26.8780 C.2       1 <0>         0.2495
     15 C15        78.6530   26.2130   27.7690 C.2       1 <0>         0.1858
     16 C16        72.3640   22.9160   29.2740 C.3       1 <0>         0.0469
     17 C17        76.2790   22.0330   36.4470 C.3       1 <0>         0.0632
     18 C18        74.1420   19.1610   37.8330 C.2       1 <0>         0.0418
     19 C19        74.6150   22.9670   34.7900 C.2       1 <0>         0.2446
     20 C20        77.8240   22.3670   36.2490 C.2       1 <0>         0.0620
     21 C21        70.9590   22.3460   28.8430 C.3       1 <0>         0.2699
     22 C22        70.5640   20.9330   29.3290 C.3       1 <0>         0.4445
     23 N1         78.1340   22.6330   28.2050 N.pl3     1 <0>        -0.3427
     24 N2         79.6460   27.0650   28.0610 N.pl3     1 <0>        -0.3307
     25 N3         77.5190   26.6430   27.1670 N.am      1 <0>        -0.2544
     26 N4         78.7960   24.9900   28.0380 N.2       1 <0>        -0.2032
     27 N5         75.5580   22.0070   35.1200 N.am      1 <0>        -0.3034
     28 O1         70.0730   23.1390   29.9110 O.3       1 <0>        -0.3577
     29 O2         70.4950   22.7470   27.8530 O.3       1 <0>        -0.3577
     30 O3         72.8400   19.0450   38.0060 O.co2     1 <0>        -0.5498
     31 O4         78.4420   22.1830   35.0300 O.co2     1 <0>        -0.5479
     32 O5         75.4060   26.2830   26.2700 O.2       1 <0>        -0.2700
     33 O6         74.9970   18.3170   38.1130 O.co2     1 <0>        -0.5498
     34 O7         74.3110   23.8530   35.5570 O.2       1 <0>        -0.2702
     35 O8         78.4540   22.7900   37.2050 O.co2     1 <0>        -0.5479
     36 F1         69.3330   20.6340   28.8810 F         1 <0>        -0.1654
     37 F2         71.5150   20.2140   28.7430 F         1 <0>        -0.1654
     38 F3         70.6650   20.6050   30.6730 F         1 <0>        -0.1654
     39 H1         71.8386   24.8975   31.5443 H         1 <0>         0.0621
     40 H2         73.9797   21.0924   30.5045 H         1 <0>         0.0621
     41 H3         72.8628   24.7849   33.8669 H         1 <0>         0.0625
     42 H4         75.0106   21.0206   32.7758 H         1 <0>         0.0625
     43 H5         75.2318   23.5426   28.9111 H         1 <0>         0.0269
     44 H6         73.8694   24.4604   28.1278 H         1 <0>         0.0269
     45 H7         75.4256   22.5169   26.3501 H         1 <0>         0.0316
     46 H8         74.7311   24.0718   25.9397 H         1 <0>         0.0316
     47 H9         73.0119   21.8185   27.4706 H         1 <0>         0.0273
     48 H10        73.9301   21.4017   28.9126 H         1 <0>         0.0273
     49 H11        76.4572   20.6294   38.0114 H         1 <0>         0.0290
     50 H12        76.3238   19.9265   36.3482 H         1 <0>         0.0290
     51 H13        74.0929   21.2548   37.9364 H         1 <0>         0.0325
     52 H14        73.9597   20.5510   36.2736 H         1 <0>         0.0325
     53 H15        72.2099   23.9945   29.1218 H         1 <0>         0.0404
     54 H16        75.9656   22.8292   37.1383 H         1 <0>         0.0560
     55 H17        79.0527   22.6258   28.5998 H         1 <0>         0.1437
     56 H18        77.4761   22.3124   28.8864 H         1 <0>         0.1437
     57 H19        80.4041   26.5637   28.4782 H         1 <0>         0.1449
     58 H20        79.9615   27.5089   27.2223 H         1 <0>         0.1449
     59 H21        77.3800   27.6013   26.9175 H         1 <0>         0.1578
     60 H22        75.7659   21.2806   34.4649 H         1 <0>         0.1496
     61 H23        69.1581   22.9105   29.7962 H         1 <0>         0.2130
     62 H24        69.6545   22.3297   27.7049 H         1 <0>         0.2130
@<TRIPOS>BOND
     1    1    3 ar
     2    1   10 ar
     3    2    4 ar
     4    2   10 ar
     5    3   11 ar
     6    4   11 ar
     7    5    6 1
     8    5    7 1
     9    6   12 1
    10    7   16 1
    11    8    9 1
    12    8   17 1
    13    9   18 1
    14   10   16 1
    15   11   19 1
    16   12   13 2
    17   12   14 1
    18   13   23 1
    19   13   26 1
    20   14   25 am
    21   14   32 2
    22   15   24 1
    23   15   25 1
    24   15   26 2
    25   16   21 1
    26   17   20 1
    27   17   27 1
    28   18   30 1
    29   18   33 2
    30   19   27 am
    31   19   34 2
    32   20   31 1
    33   20   35 2
    34   21   22 1
    35   21   28 1
    36   21   29 1
    37   22   36 1
    38   22   37 1
    39   22   38 1
    40    1   39 1
    41    2   40 1
    42    3   41 1
    43    4   42 1
    44    5   43 1
    45    5   44 1
    46    6   45 1
    47    6   46 1
    48    7   47 1
    49    7   48 1
    50    8   49 1
    51    8   50 1
    52    9   51 1
    53    9   52 1
    54   16   53 1
    55   17   54 1
    56   23   55 1
    57   23   56 1
    58   24   57 1
    59   24   58 1
    60   25   59 1
    61   27   60 1
    62   28   61 1
    63   29   62 1
