@<TRIPOS>MOLECULE
K55_922_2ZNP
   59    60     0     0     0
SMALL
USER_CHARGES

@<TRIPOS>ATOM
      1 C1         13.2460    7.1740   34.4700 C.3       1 <0>        -0.0652
      2 C2         20.3250   -0.8950   37.7380 C.3       1 <0>        -0.0647
      3 C3         18.7280    2.6390   35.2530 C.ar      1 <0>        -0.0561
      4 C4         11.8360    2.3610   42.0280 C.ar      1 <0>        -0.0492
      5 C5         12.0310    2.0040   40.6950 C.ar      1 <0>        -0.0463
      6 C6         17.9120    3.7550   35.4190 C.ar      1 <0>        -0.0311
      7 C7         16.8990    1.2210   35.9960 C.ar      1 <0>        -0.0514
      8 C8         13.3560    4.2450   41.6990 C.ar      1 <0>        -0.0141
      9 C9         14.6310    7.5910   34.8770 C.3       1 <0>        -0.0538
     10 C10        19.2800   -1.7720   37.0420 C.3       1 <0>        -0.0477
     11 C11        15.0090    6.8010   36.0730 C.3       1 <0>        -0.0292
     12 C12        16.1950    5.9290   35.7840 C.3       1 <0>         0.0542
     13 C13        19.1680    0.1870   35.3730 C.3       1 <0>        -0.0197
     14 C14        14.6480    2.1740   36.6250 C.3       1 <0>         0.0396
     15 C15        18.2430    1.3550   35.5420 C.ar      1 <0>        -0.0463
     16 C16        12.4930    3.4850   42.5550 C.ar      1 <0>         0.0576
     17 C17        12.8770    2.7570   39.8660 C.ar      1 <0>         0.0718
     18 C18        16.5940    3.6090   35.8700 C.ar      1 <0>         0.0808
     19 C19        16.0660    2.3660   36.1560 C.ar      1 <0>        -0.0001
     20 C20        13.5360    3.8640   40.3490 C.ar      1 <0>         0.1360
     21 C21        18.6370   -1.1950   35.7360 C.3       1 <0>         0.0023
     22 C22        13.0480    2.3600   38.5080 C.2       1 <0>         0.2471
     23 C23        18.9770   -2.1190   34.6030 C.2       1 <0>         0.0451
     24 C24        12.2700    3.8740   43.9920 C.3       1 <0>         0.4175
     25 N1         14.3330    2.5410   37.9810 N.am      1 <0>        -0.3071
     26 O1         20.2310   -1.9230   34.1690 O.co2     1 <0>        -0.5495
     27 O2         12.1010    1.8910   37.9170 O.2       1 <0>        -0.2701
     28 O3         18.2640   -2.9750   34.1070 O.co2     1 <0>        -0.5495
     29 O4         15.7480    4.6100   36.0550 O.3       1 <0>        -0.3444
     30 F1         14.3520    4.5930   39.5570 F         1 <0>        -0.2047
     31 F2         10.9880    4.1220   44.2530 F         1 <0>        -0.1659
     32 F3         12.9490    5.0080   44.3630 F         1 <0>        -0.1659
     33 F4         12.5930    2.9270   44.8590 F         1 <0>        -0.1659
     34 H1         12.9367    7.7449   33.5821 H         1 <0>         0.0230
     35 H2         13.2410    6.0994   34.2349 H         1 <0>         0.0230
     36 H3         12.5462    7.3722   35.2952 H         1 <0>         0.0230
     37 H4         20.6971   -1.4099   38.6360 H         1 <0>         0.0230
     38 H5         21.1624   -0.7068   37.0500 H         1 <0>         0.0230
     39 H6         19.8661    0.0618   38.0278 H         1 <0>         0.0230
     40 H7         19.7409    2.7629   34.8994 H         1 <0>         0.0621
     41 H8         11.1807    1.7743   42.6548 H         1 <0>         0.0623
     42 H9         11.5251    1.1376   40.2952 H         1 <0>         0.0626
     43 H10        18.2978    4.7394   35.1986 H         1 <0>         0.0643
     44 H11        16.5071    0.2402   36.2215 H         1 <0>         0.0624
     45 H12        13.8707    5.1118   42.0865 H         1 <0>         0.0652
     46 H13        15.3390    7.3967   34.0579 H         1 <0>         0.0263
     47 H14        14.6467    8.6650   35.1144 H         1 <0>         0.0263
     48 H15        19.7771   -2.7147   36.7697 H         1 <0>         0.0269
     49 H16        18.4634   -1.9358   37.7606 H         1 <0>         0.0269
     50 H17        15.2619    7.4900   36.8923 H         1 <0>         0.0287
     51 H18        14.1600    6.1658   36.3659 H         1 <0>         0.0287
     52 H19        16.5151    6.0309   34.7365 H         1 <0>         0.0565
     53 H20        17.0484    6.1969   36.4243 H         1 <0>         0.0565
     54 H21        19.4456    0.1521   34.3092 H         1 <0>         0.0319
     55 H22        20.0380    0.3737   36.0197 H         1 <0>         0.0319
     56 H23        14.0118    2.7908   35.9732 H         1 <0>         0.0512
     57 H24        14.4233    1.1018   36.5260 H         1 <0>         0.0512
     58 H25        17.5543   -1.1099   35.9106 H         1 <0>         0.0363
     59 H26        15.0477    2.9340   38.5596 H         1 <0>         0.1493
@<TRIPOS>BOND
     1    1    9 1
     2    2   10 1
     3    3    6 ar
     4    3   15 ar
     5    4    5 ar
     6    4   16 ar
     7    5   17 ar
     8    6   18 ar
     9    7   15 ar
    10    7   19 ar
    11    8   16 ar
    12    8   20 ar
    13    9   11 1
    14   10   21 1
    15   11   12 1
    16   12   29 1
    17   13   15 1
    18   13   21 1
    19   14   19 1
    20   14   25 1
    21   16   24 1
    22   17   20 ar
    23   17   22 1
    24   18   19 ar
    25   18   29 1
    26   20   30 1
    27   21   23 1
    28   22   25 am
    29   22   27 2
    30   23   26 1
    31   23   28 2
    32   24   31 1
    33   24   32 1
    34   24   33 1
    35    1   34 1
    36    1   35 1
    37    1   36 1
    38    2   37 1
    39    2   38 1
    40    2   39 1
    41    3   40 1
    42    4   41 1
    43    5   42 1
    44    6   43 1
    45    7   44 1
    46    8   45 1
    47    9   46 1
    48    9   47 1
    49   10   48 1
    50   10   49 1
    51   11   50 1
    52   11   51 1
    53   12   52 1
    54   12   53 1
    55   13   54 1
    56   13   55 1
    57   14   56 1
    58   14   57 1
    59   21   58 1
    60   25   59 1
