@<TRIPOS>MOLECULE
FMS_500_1BCD
   10     9     0     0     0
SMALL
USER_CHARGES

@<TRIPOS>ATOM
      1 C1         -6.5640    1.6460   17.4020 C.3       1 <0>         0.5379
      2 N1         -5.1990   -0.4760   16.1990 N.pl3     1 <0>        -0.2576
      3 O1         -3.9940    1.5610   16.8260 O.2       1 <0>        -0.1471
      4 O2         -5.6450    1.7270   15.0180 O.2       1 <0>        -0.1471
      5 F1         -7.6990    1.3040   16.9150 F         1 <0>        -0.1491
      6 F2         -6.5680    3.0110   17.3310 F         1 <0>        -0.1491
      7 F3         -6.3360    1.1890   18.5890 F         1 <0>        -0.1491
      8 S1         -5.2870    1.1360   16.3120 S.o2      1 <0>         0.1346
      9 H1         -4.4622   -0.7269   15.5711 H         1 <0>         0.1634
     10 H2         -5.0137   -0.8637   17.1020 H         1 <0>         0.1634
@<TRIPOS>BOND
     1    1    5 1
     2    1    6 1
     3    1    7 1
     4    1    8 1
     5    2    8 1
     6    3    8 2
     7    4    8 2
     8    2    9 1
     9    2   10 1
