@<TRIPOS>MOLECULE
88Z_1_3LQ8
   81    86     0     0     0
SMALL
USER_CHARGES

@<TRIPOS>ATOM
      1 C1         -4.0970    0.6650   31.0330 C.3       1 <0>         0.0431
      2 C2          8.1720    5.7060   24.9340 C.ar      1 <0>        -0.0378
      3 C3          9.3470    3.5810   24.6850 C.ar      1 <0>        -0.0378
      4 C4          8.1180    5.9050   23.5480 C.ar      1 <0>        -0.0247
      5 C5          9.2930    3.7690   23.2980 C.ar      1 <0>        -0.0247
      6 C6          2.9920    3.8710   28.6730 C.ar      1 <0>        -0.0378
      7 C7          1.6580    3.7710   28.9990 C.ar      1 <0>        -0.0266
      8 C8         -0.3540    6.1810   30.4530 C.ar      1 <0>        -0.0124
      9 C9         -1.2580    7.2500   30.2170 C.ar      1 <0>         0.0307
     10 C10         3.6530    4.0910   30.9980 C.ar      1 <0>        -0.0026
     11 C11        -2.7380    3.3300   30.7410 C.ar      1 <0>        -0.0175
     12 C12        -4.5070    5.6010   30.3670 C.ar      1 <0>        -0.0031
     13 C13         8.6780    2.8460   29.6270 C.3       1 <0>        -0.0292
     14 C14         8.9860    4.3190   29.8840 C.3       1 <0>        -0.0292
     15 C15       -10.6240    2.5090   27.9740 C.3       1 <0>        -0.0078
     16 C16       -10.8380    2.3140   30.4910 C.3       1 <0>        -0.0078
     17 C17       -12.1230    2.2180   27.8660 C.3       1 <0>         0.0878
     18 C18       -12.3360    2.2120   30.1590 C.3       1 <0>         0.0878
     19 C19        -8.6720    4.1240   30.7980 C.3       1 <0>         0.0114
     20 C20        -9.1570    3.8610   29.3920 C.3       1 <0>        -0.0296
     21 C21        -7.3870    4.9350   30.6280 C.3       1 <0>         0.0591
     22 C22         8.7450    4.5550   25.5100 C.ar      1 <0>         0.0336
     23 C23         8.7120    4.9090   22.7350 C.ar      1 <0>         0.1235
     24 C24         3.9860    4.0490   29.6490 C.ar      1 <0>         0.0363
     25 C25         1.2820    3.8340   30.3260 C.ar      1 <0>         0.1183
     26 C26        -0.8220    4.8600   30.6120 C.ar      1 <0>         0.0939
     27 C27        -2.2500    4.6130   30.5820 C.ar      1 <0>         0.0335
     28 C28        -3.1310    5.7950   30.3810 C.ar      1 <0>         0.0760
     29 C29        -4.1270    3.1380   30.7040 C.ar      1 <0>         0.1064
     30 C30        -5.0100    4.3010   30.5130 C.ar      1 <0>         0.1081
     31 C31         2.3080    4.0020   31.3610 C.ar      1 <0>         0.1554
     32 C32         7.6440    4.1760   27.5770 C.2       1 <0>         0.2323
     33 C33         6.4110    3.8540   29.8760 C.2       1 <0>         0.2323
     34 C34         7.7140    3.9280   29.1010 C.3       1 <0>         0.1233
     35 N1         -2.5880    7.0190   30.2290 N.ar      1 <0>        -0.2547
     36 N2          8.7740    4.3730   26.8710 N.am      1 <0>        -0.2846
     37 N3          5.2660    4.1510   29.2260 N.am      1 <0>        -0.2846
     38 N4        -10.3380    3.0260   29.3180 N.4       1 <0>         0.2385
     39 O1          6.5800    4.5870   27.0980 O.2       1 <0>        -0.2743
     40 O2          6.4690    3.5060   31.0310 O.2       1 <0>        -0.2743
     41 O3        -12.4340    1.3970   28.9820 O.3       1 <0>        -0.3693
     42 O4         -4.7660    1.9090   30.8150 O.3       1 <0>        -0.3453
     43 O5         -6.3280    3.9790   30.5020 O.3       1 <0>        -0.3419
     44 O6         -0.0100    3.7510   30.7610 O.3       1 <0>        -0.3057
     45 F1          8.7230    5.0430   21.3910 F         1 <0>        -0.2055
     46 F2          1.8570    4.0670   32.6250 F         1 <0>        -0.2027
     47 H1         -4.8377   -0.1468   31.0807 H         1 <0>         0.0529
     48 H2         -3.3978    0.4749   30.2054 H         1 <0>         0.0529
     49 H3         -3.5403    0.7094   31.9807 H         1 <0>         0.0529
     50 H4          7.7592    6.4628   25.5846 H         1 <0>         0.0637
     51 H5          9.8348    2.7164   25.1104 H         1 <0>         0.0637
     52 H6          7.6457    6.7768   23.1199 H         1 <0>         0.0647
     53 H7          9.7105    3.0147   22.6476 H         1 <0>         0.0647
     54 H8          3.2829    3.8107   27.6347 H         1 <0>         0.0637
     55 H9          0.9146    3.6448   28.2258 H         1 <0>         0.0645
     56 H10         0.7055    6.3819   30.5115 H         1 <0>         0.0659
     57 H11        -0.8828    8.2450   30.0284 H         1 <0>         0.0830
     58 H12         4.4206    4.1906   31.7512 H         1 <0>         0.0666
     59 H13        -2.0673    2.4967   30.8899 H         1 <0>         0.0651
     60 H14        -5.1780    6.4385   30.2456 H         1 <0>         0.0666
     61 H15         9.2530    2.0766   29.0909 H         1 <0>         0.0280
     62 H16         8.5095    2.0161   30.3290 H         1 <0>         0.0280
     63 H17         9.1069    4.8733   30.8264 H         1 <0>         0.0280
     64 H18         9.8494    4.9338   29.5899 H         1 <0>         0.0280
     65 H19       -10.0536    1.5841   27.8035 H         1 <0>         0.0837
     66 H20       -10.3363    3.2567   27.2202 H         1 <0>         0.0837
     67 H21       -10.6529    2.8645   31.4252 H         1 <0>         0.0837
     68 H22       -10.3682    1.3269   30.6132 H         1 <0>         0.0837
     69 H23       -12.7047    3.1512   27.8938 H         1 <0>         0.0613
     70 H24       -12.3530    1.6992   26.9237 H         1 <0>         0.0613
     71 H25       -12.8856    1.7521   30.9935 H         1 <0>         0.0613
     72 H26       -12.7588    3.2104   29.9732 H         1 <0>         0.0613
     73 H27        -9.4205    4.6878   31.3740 H         1 <0>         0.0339
     74 H28        -8.4756    3.1814   31.3299 H         1 <0>         0.0339
     75 H29        -9.3979    4.8299   28.9301 H         1 <0>         0.0815
     76 H30        -8.3489    3.3539   28.8444 H         1 <0>         0.0815
     77 H31        -7.4451    5.5691   29.7311 H         1 <0>         0.0567
     78 H32        -7.2207    5.5845   31.5001 H         1 <0>         0.0567
     79 H33         9.6528    4.3870   27.3480 H         1 <0>         0.1548
     80 H34         5.3814    4.4973   28.2950 H         1 <0>         0.1548
     81 H35       -11.0555    3.7044   29.4757 H         1 <0>         0.2035
@<TRIPOS>BOND
     1    1   42 1
     2    2    4 ar
     3    2   22 ar
     4    3    5 ar
     5    3   22 ar
     6    4   23 ar
     7    5   23 ar
     8    6    7 ar
     9    6   24 ar
    10    7   25 ar
    11    8    9 ar
    12    8   26 ar
    13    9   35 ar
    14   10   24 ar
    15   10   31 ar
    16   11   27 ar
    17   11   29 ar
    18   12   28 ar
    19   12   30 ar
    20   13   14 1
    21   13   34 1
    22   14   34 1
    23   15   17 1
    24   15   38 1
    25   16   18 1
    26   16   38 1
    27   17   41 1
    28   18   41 1
    29   19   20 1
    30   19   21 1
    31   20   38 1
    32   21   43 1
    33   22   36 1
    34   23   45 1
    35   24   37 1
    36   25   31 ar
    37   25   44 1
    38   26   27 ar
    39   26   44 1
    40   27   28 ar
    41   28   35 ar
    42   29   30 ar
    43   29   42 1
    44   30   43 1
    45   31   46 1
    46   32   34 1
    47   32   36 am
    48   32   39 2
    49   33   34 1
    50   33   37 am
    51   33   40 2
    52    1   47 1
    53    1   48 1
    54    1   49 1
    55    2   50 1
    56    3   51 1
    57    4   52 1
    58    5   53 1
    59    6   54 1
    60    7   55 1
    61    8   56 1
    62    9   57 1
    63   10   58 1
    64   11   59 1
    65   12   60 1
    66   13   61 1
    67   13   62 1
    68   14   63 1
    69   14   64 1
    70   15   65 1
    71   15   66 1
    72   16   67 1
    73   16   68 1
    74   17   69 1
    75   17   70 1
    76   18   71 1
    77   18   72 1
    78   19   73 1
    79   19   74 1
    80   20   75 1
    81   20   76 1
    82   21   77 1
    83   21   78 1
    84   36   79 1
    85   37   80 1
    86   38   81 1
