@<TRIPOS>MOLECULE
AT1_258_1VSO
   38    38     0     0     0
SMALL
USER_CHARGES

@<TRIPOS>ATOM
      1 C1         39.7510    9.0910    8.8210 C.3       1 <0>        -0.0541
      2 C2         41.8670    7.7950    9.1260 C.3       1 <0>        -0.0541
      3 C3         41.1810    8.5560    6.8690 C.3       1 <0>        -0.0541
      4 C4         39.4930    5.8860    5.5700 C.3       1 <0>         0.0271
      5 C5         37.2820    2.9370    7.9810 C.3       1 <0>         0.0830
      6 C6         39.3920    5.8970    7.0660 C.2       1 <0>         0.0385
      7 C7         39.8570    6.7270    8.0670 C.2       1 <0>         0.0984
      8 C8         38.6710    4.8910    7.7880 C.2       1 <0>         0.2008
      9 C9         40.3370    4.7540    4.9780 C.3       1 <0>         0.0202
     10 C10        40.0710    4.5890    3.4290 C.2       1 <0>         0.0897
     11 C11        40.6750    8.0160    8.2000 C.3       1 <0>         0.0117
     12 N1         41.8390    5.0010    5.1840 N.4       1 <0>         0.2251
     13 N2         38.6860    5.0620    9.0890 N.2       1 <0>        -0.1019
     14 O1         41.0750    4.6780    2.6580 O.co2     1 <0>        -0.5442
     15 O2         35.4750    1.0470    7.8200 O.3       1 <0>        -0.8113
     16 O3         35.2950    2.8940    6.1530 O.3       1 <0>        -0.8113
     17 O4         38.8910    4.3770    3.0650 O.co2     1 <0>        -0.5442
     18 O5         37.1590    1.1790    5.9410 O.2       1 <0>        -0.3512
     19 O6         39.4480    6.2390    9.2710 O.3       1 <0>        -0.2138
     20 O7         38.0380    3.8840    7.1560 O.3       1 <0>        -0.3211
     21 P1         36.2720    1.9120    6.8820 P.3       1 <0>        -0.0394
     22 H1         38.8872    9.2585    8.1609 H         1 <0>         0.0239
     23 H2         39.3991    8.7477    9.8050 H         1 <0>         0.0239
     24 H3         40.3100   10.0310    8.9388 H         1 <0>         0.0239
     25 H4         42.5311    7.0320    8.6939 H         1 <0>         0.0239
     26 H5         42.4202    8.7386    9.2429 H         1 <0>         0.0239
     27 H6         41.5093    7.4552   10.1092 H         1 <0>         0.0239
     28 H7         41.8431    7.8137    6.3994 H         1 <0>         0.0239
     29 H8         40.3264    8.7562    6.2060 H         1 <0>         0.0239
     30 H9         41.7389    9.4885    7.0401 H         1 <0>         0.0239
     31 H10        38.4736    5.7842    5.1694 H         1 <0>         0.0374
     32 H11        39.9508    6.8374    5.2614 H         1 <0>         0.0374
     33 H12        37.9749    2.3025    8.5532 H         1 <0>         0.0622
     34 H13        36.6350    3.4845    8.6821 H         1 <0>         0.0622
     35 H14        40.0393    3.8369    5.5075 H         1 <0>         0.0918
     36 H15        42.3592    4.2450    4.7867 H         1 <0>         0.2001
     37 H16        42.1004    5.8565    4.7370 H         1 <0>         0.2001
     38 H17        42.0354    5.0625    6.1626 H         1 <0>         0.2001
@<TRIPOS>BOND
     1    1   11 1
     2    2   11 1
     3    3   11 1
     4    4    6 1
     5    4    9 1
     6    5   20 1
     7    5   21 1
     8    6    7 2
     9    6    8 1
    10    7   11 1
    11    7   19 1
    12    8   13 2
    13    8   20 1
    14    9   10 1
    15    9   12 1
    16   10   14 1
    17   10   17 2
    18   13   19 1
    19   15   21 1
    20   16   21 1
    21   18   21 2
    22    1   22 1
    23    1   23 1
    24    1   24 1
    25    2   25 1
    26    2   26 1
    27    2   27 1
    28    3   28 1
    29    3   29 1
    30    3   30 1
    31    4   31 1
    32    4   32 1
    33    5   33 1
    34    5   34 1
    35    9   35 1
    36   12   36 1
    37   12   37 1
    38   12   38 1
