@<TRIPOS>MOLECULE
DAY_301_3BQD
   73    78     0     0     0
SMALL
USER_CHARGES

@<TRIPOS>ATOM
      1 C1         44.5620   25.9160   10.4890 C.3       1 <0>        -0.0594
      2 C2         40.9330   30.6630    5.7050 C.3       1 <0>        -0.0132
      3 C3         40.0960   26.1200   10.9890 C.3       1 <0>        -0.0561
      4 C4         37.5760   29.6320    8.7720 C.3       1 <0>        -0.0493
      5 C5         37.5650   36.6330    3.9300 C.ar      1 <0>        -0.0616
      6 C6         37.6920   35.1850    4.2520 C.ar      1 <0>        -0.0594
      7 C7         37.4230   37.4170    5.1480 C.ar      1 <0>        -0.0594
      8 C8         37.7090   34.5830    5.4750 C.ar      1 <0>        -0.0318
      9 C9         37.4310   36.6720    6.5250 C.ar      1 <0>        -0.0318
     10 C10        42.5320   26.6100    9.3350 C.3       1 <0>        -0.0430
     11 C11        40.5510   28.4780   12.1480 C.3       1 <0>        -0.0178
     12 C12        38.1420   31.6110    9.9440 C.3       1 <0>         0.0097
     13 C13        37.1130   34.0970   10.2160 C.3       1 <0>         0.1306
     14 C14        41.1150   29.0380    7.6490 C.2       1 <0>        -0.0232
     15 C15        39.0030   32.2150    7.2770 C.2       1 <0>         0.0519
     16 C16        41.7310   26.2440   14.4560 C.3       1 <0>         0.1052
     17 C17        37.5950   35.2410    6.7120 C.ar      1 <0>         0.0908
     18 C18        43.0420   25.9020   10.5710 C.3       1 <0>        -0.0071
     19 C19        41.7200   27.8560    9.9030 C.3       1 <0>        -0.0209
     20 C20        39.5070   29.2590   11.3730 C.3       1 <0>         0.0608
     21 C21        40.6080   28.5240    9.0420 C.3       1 <0>         0.0089
     22 C22        40.0170   29.7340    9.9410 C.3       1 <0>         0.0113
     23 C23        40.4680   30.2300    6.9850 C.2       1 <0>         0.0239
     24 C24        37.8450   32.8480    9.5150 C.2       1 <0>         0.0444
     25 C25        39.3060   30.9660    7.7730 C.2       1 <0>         0.0437
     26 C26        38.2240   33.2600    8.1260 C.2       1 <0>         0.1604
     27 C27        42.2520   25.7520   13.0780 C.2       1 <0>         0.1904
     28 C28        41.1880   27.2840   11.3080 C.3       1 <0>         0.0101
     29 C29        38.8500   30.4950    9.1820 C.3       1 <0>         0.0340
     30 C30        42.5010   26.7130   11.8330 C.3       1 <0>         0.1340
     31 N1         37.2200   34.9760    8.9150 N.2       1 <0>        -0.1299
     32 N2         37.5740   34.5120    7.7400 N.pl3     1 <0>        -0.1199
     33 O1         41.2720   25.1960   15.2950 O.3       1 <0>        -0.3874
     34 O2         38.3530   28.4230   11.2960 O.3       1 <0>        -0.3914
     35 O3         43.4710   27.7710   12.1700 O.3       1 <0>        -0.3802
     36 O4         42.4750   24.5520   12.9800 O.2       1 <0>        -0.2919
     37 H1         44.9820   25.4098   11.3707 H         1 <0>         0.0233
     38 H2         44.8847   25.3920    9.5772 H         1 <0>         0.0233
     39 H3         44.9179   26.9564   10.4596 H         1 <0>         0.0233
     40 H4         40.3501   31.5371    5.3790 H         1 <0>         0.0339
     41 H5         41.9961   30.9367    5.7746 H         1 <0>         0.0339
     42 H6         40.8109   29.8484    4.9759 H         1 <0>         0.0339
     43 H7         40.5743   25.3167   10.4094 H         1 <0>         0.0236
     44 H8         39.7104   25.7102   11.9342 H         1 <0>         0.0236
     45 H9         39.2650   26.5464   10.4079 H         1 <0>         0.0236
     46 H10        37.8983   28.7528    8.1949 H         1 <0>         0.0243
     47 H11        37.0495   29.3017    9.6796 H         1 <0>         0.0243
     48 H12        36.8998   30.2454    8.1584 H         1 <0>         0.0243
     49 H13        37.5766   37.0444    2.9315 H         1 <0>         0.0618
     50 H14        37.7828   34.5232    3.4034 H         1 <0>         0.0618
     51 H15        37.3144   38.4906    5.1029 H         1 <0>         0.0618
     52 H16        37.8195   33.5089    5.4953 H         1 <0>         0.0642
     53 H17        37.3036   37.2741    7.4125 H         1 <0>         0.0642
     54 H18        43.3623   26.9355    8.6911 H         1 <0>         0.0272
     55 H19        41.8847   25.9516    8.7371 H         1 <0>         0.0272
     56 H20        41.3582   29.1690   12.4325 H         1 <0>         0.0297
     57 H21        40.0712   28.0535   13.0422 H         1 <0>         0.0297
     58 H22        38.7934   31.7865   10.8129 H         1 <0>         0.0382
     59 H23        37.1607   31.1776   10.1876 H         1 <0>         0.0382
     60 H24        36.0920   33.9072   10.5788 H         1 <0>         0.0706
     61 H25        37.6146   34.5032   11.1067 H         1 <0>         0.0706
     62 H26        41.9354   28.5340    7.1598 H         1 <0>         0.0961
     63 H27        39.3134   32.4746    6.2757 H         1 <0>         0.1094
     64 H28        42.5562   26.7581   14.9705 H         1 <0>         0.0637
     65 H29        40.8922   26.9332   14.2788 H         1 <0>         0.0637
     66 H30        42.7013   24.8595   10.6550 H         1 <0>         0.0330
     67 H31        42.3819   28.7335    9.9473 H         1 <0>         0.0317
     68 H32        39.2725   30.2003   11.8916 H         1 <0>         0.0597
     69 H33        39.8360   27.7824    8.7889 H         1 <0>         0.0408
     70 H34        40.8584   30.4233   10.1048 H         1 <0>         0.0349
     71 H35        41.4683   24.3583   14.8922 H         1 <0>         0.2100
     72 H36        37.6673   28.8724   10.8161 H         1 <0>         0.2098
     73 H37        43.1579   28.2607   12.9214 H         1 <0>         0.2108
@<TRIPOS>BOND
     1    1   18 1
     2    2   23 1
     3    3   28 1
     4    4   29 1
     5    5    6 ar
     6    5    7 ar
     7    6    8 ar
     8    7    9 ar
     9    8   17 ar
    10    9   17 ar
    11   10   18 1
    12   10   19 1
    13   11   20 1
    14   11   28 1
    15   12   24 1
    16   12   29 1
    17   13   24 1
    18   13   31 1
    19   14   21 1
    20   14   23 2
    21   15   25 2
    22   15   26 1
    23   16   27 1
    24   16   33 1
    25   17   32 1
    26   18   30 1
    27   19   21 1
    28   19   28 1
    29   20   22 1
    30   20   34 1
    31   21   22 1
    32   22   29 1
    33   23   25 1
    34   24   26 2
    35   25   29 1
    36   26   32 1
    37   27   30 1
    38   27   36 2
    39   28   30 1
    40   30   35 1
    41   31   32 2
    42    1   37 1
    43    1   38 1
    44    1   39 1
    45    2   40 1
    46    2   41 1
    47    2   42 1
    48    3   43 1
    49    3   44 1
    50    3   45 1
    51    4   46 1
    52    4   47 1
    53    4   48 1
    54    5   49 1
    55    6   50 1
    56    7   51 1
    57    8   52 1
    58    9   53 1
    59   10   54 1
    60   10   55 1
    61   11   56 1
    62   11   57 1
    63   12   58 1
    64   12   59 1
    65   13   60 1
    66   13   61 1
    67   14   62 1
    68   15   63 1
    69   16   64 1
    70   16   65 1
    71   18   66 1
    72   19   67 1
    73   20   68 1
    74   21   69 1
    75   22   70 1
    76   33   71 1
    77   34   72 1
    78   35   73 1
