@<TRIPOS>MOLECULE
61E_576_3BIZ
   59    63     0     0     0
SMALL
USER_CHARGES

@<TRIPOS>ATOM
      1 C1          1.5330   53.5030   23.0800 C.3       1 <0>         0.0058
      2 C2          6.6600   53.0310   15.3300 C.3       1 <0>        -0.0433
      3 C3          8.8180   52.8040   16.3630 C.3       1 <0>        -0.0433
      4 C4          0.0270   51.9030   29.4410 C.ar      1 <0>        -0.0611
      5 C5         -0.2610   52.8740   30.4300 C.ar      1 <0>        -0.0603
      6 C6          0.9860   52.1030   28.4200 C.ar      1 <0>        -0.0526
      7 C7          0.3500   54.1510   30.3780 C.ar      1 <0>        -0.0428
      8 C8          6.3320   54.7730   23.6350 C.ar      1 <0>        -0.0198
      9 C9          2.1700   53.5410   26.0180 C.ar      1 <0>        -0.0312
     10 C10         4.3190   54.3370   21.6710 C.ar      1 <0>        -0.0072
     11 C11         5.7360   54.9230   17.5250 C.3       1 <0>         0.0114
     12 C12         7.2250   54.3760   17.4880 C.3       1 <0>        -0.0303
     13 C13         4.9990   54.7790   18.9030 C.3       1 <0>         0.0591
     14 C14         1.6380   53.3760   28.3580 C.ar      1 <0>         0.0012
     15 C15         1.2640   54.4180   29.3030 C.ar      1 <0>         0.0487
     16 C16         5.0130   54.4440   24.0230 C.ar      1 <0>         0.0086
     17 C17         2.5960   53.6380   27.3420 C.ar      1 <0>        -0.0019
     18 C18         3.0740   53.8980   24.9910 C.ar      1 <0>         0.0429
     19 C19         4.0090   54.1990   23.0410 C.ar      1 <0>         0.0442
     20 C20         6.6470   54.9810   22.2580 C.ar      1 <0>         0.1031
     21 C21         5.6410   54.7330   21.2950 C.ar      1 <0>         0.1076
     22 C22         4.4050   54.2540   25.2550 C.ar      1 <0>         0.0182
     23 C23         3.9480   53.9930   27.6430 C.ar      1 <0>         0.0576
     24 C24         4.8620   54.3120   26.6110 C.ar      1 <0>         0.0593
     25 C25         4.7280   54.1260   28.8740 C.2       1 <0>         0.2518
     26 C26         6.0680   54.6060   27.2800 C.2       1 <0>         0.2519
     27 N1          5.9600   54.5150   28.6380 N.am      1 <0>        -0.2483
     28 N2          2.8850   53.8590   23.6860 N.pl3     1 <0>        -0.3021
     29 N3          7.3910   53.1050   16.6580 N.4       1 <0>         0.2310
     30 O1          7.8060   55.2810   21.8760 O.3       1 <0>        -0.3573
     31 O2          4.3170   53.9280   30.0150 O.2       1 <0>        -0.2697
     32 O3          7.0980   55.0050   26.7460 O.2       1 <0>        -0.2697
     33 O4          6.0200   54.9230   19.9780 O.3       1 <0>        -0.3419
     34 Cl1         1.8980   56.0290   29.3670 Cl        1 <0>        -0.0829
     35 H1          1.6035   53.5315   21.9826 H         1 <0>         0.0432
     36 H2          1.2415   52.4925   23.4024 H         1 <0>         0.0432
     37 H3          0.7777   54.2279   23.4177 H         1 <0>         0.0432
     38 H4          5.5926   53.2462   15.4859 H         1 <0>         0.0777
     39 H5          7.0854   53.7707   14.6358 H         1 <0>         0.0777
     40 H6          6.7724   52.0224   14.9055 H         1 <0>         0.0777
     41 H7          9.4017   52.8432   17.2945 H         1 <0>         0.0777
     42 H8          8.8972   51.7990   15.9229 H         1 <0>         0.0777
     43 H9          9.2102   53.5472   15.6532 H         1 <0>         0.0777
     44 H10        -0.5100   50.9663   29.4670 H         1 <0>         0.0618
     45 H11        -0.9500   52.6401   31.2281 H         1 <0>         0.0618
     46 H12         1.2183   51.3217   27.7114 H         1 <0>         0.0624
     47 H13         0.1349   54.9013   31.1244 H         1 <0>         0.0632
     48 H14         7.1048   54.8674   24.3835 H         1 <0>         0.0651
     49 H15         1.1724   53.2010   25.7822 H         1 <0>         0.0643
     50 H16         3.5690   54.1464   20.9176 H         1 <0>         0.0663
     51 H17         5.7704   55.9944   17.2781 H         1 <0>         0.0339
     52 H18         5.1571   54.3586   16.7791 H         1 <0>         0.0339
     53 H19         7.8647   55.1562   17.0497 H         1 <0>         0.0815
     54 H20         7.5326   54.1525   18.5202 H         1 <0>         0.0815
     55 H21         4.2311   55.5601   19.0042 H         1 <0>         0.0567
     56 H22         4.5148   53.7937   18.9713 H         1 <0>         0.0567
     57 H23         6.6722   54.7053   29.3137 H         1 <0>         0.1581
     58 H24         6.9665   52.4358   17.2679 H         1 <0>         0.2028
     59 H25         7.8136   55.3766   20.9309 H         1 <0>         0.2174
@<TRIPOS>BOND
     1    1   28 1
     2    2   29 1
     3    3   29 1
     4    4    5 ar
     5    4    6 ar
     6    5    7 ar
     7    6   14 ar
     8    7   15 ar
     9    8   16 ar
    10    8   20 ar
    11    9   17 ar
    12    9   18 ar
    13   10   19 ar
    14   10   21 ar
    15   11   12 1
    16   11   13 1
    17   12   29 1
    18   13   33 1
    19   14   15 ar
    20   14   17 1
    21   15   34 1
    22   16   19 ar
    23   16   22 1
    24   17   23 ar
    25   18   22 ar
    26   18   28 1
    27   19   28 1
    28   20   21 ar
    29   20   30 1
    30   21   33 1
    31   22   24 ar
    32   23   24 ar
    33   23   25 1
    34   24   26 1
    35   25   27 am
    36   25   31 2
    37   26   27 am
    38   26   32 2
    39    1   35 1
    40    1   36 1
    41    1   37 1
    42    2   38 1
    43    2   39 1
    44    2   40 1
    45    3   41 1
    46    3   42 1
    47    3   43 1
    48    4   44 1
    49    5   45 1
    50    6   46 1
    51    7   47 1
    52    8   48 1
    53    9   49 1
    54   10   50 1
    55   11   51 1
    56   11   52 1
    57   12   53 1
    58   12   54 1
    59   13   55 1
    60   13   56 1
    61   27   57 1
    62   29   58 1
    63   30   59 1
