@<TRIPOS>MOLECULE
PD5_601_3EL8
   53    56     0     0     0
SMALL
USER_CHARGES

@<TRIPOS>ATOM
      1 C1          4.5340   11.3850    5.9670 C.3       1 <0>        -0.0448
      2 C2          5.4760    9.9560    4.1170 C.3       1 <0>        -0.0448
      3 C3         -4.7120    1.2210    9.5860 C.ar      1 <0>        -0.0595
      4 C4         -4.1780    0.0970    8.9700 C.ar      1 <0>        -0.0500
      5 C5         -3.9360    2.3690    9.7040 C.ar      1 <0>        -0.0404
      6 C6          2.9520    5.5450    7.6680 C.ar      1 <0>        -0.0507
      7 C7          2.2670    7.5370    8.8170 C.ar      1 <0>        -0.0507
      8 C8          1.8060    4.8880    8.1080 C.ar      1 <0>        -0.0398
      9 C9          1.1220    6.8810    9.2590 C.ar      1 <0>        -0.0398
     10 C10        -2.1110    1.2750    8.5990 C.ar      1 <0>        -0.0288
     11 C11         8.2340    7.1580    7.1080 C.ar      1 <0>         0.1202
     12 C12         3.1800    6.8750    8.0070 C.ar      1 <0>         0.0028
     13 C13         0.8780    5.5610    8.8950 C.ar      1 <0>         0.0348
     14 C14        -2.8790    0.1200    8.4760 C.ar      1 <0>         0.0566
     15 C15        -2.6380    2.4050    9.2120 C.ar      1 <0>         0.0353
     16 C16         5.5660    7.2160    7.4560 C.ar      1 <0>         0.0834
     17 C17         4.2290    7.5870    7.4340 C.2       1 <0>         0.1030
     18 C18         6.3210    6.1690    7.9710 C.ar      1 <0>         0.1306
     19 C19         6.2140    8.2230    6.7640 C.ar      1 <0>         0.1552
     20 C20         5.5470   10.2950    5.6080 C.3       1 <0>         0.0423
     21 C21        -0.7220    3.8010    8.9400 C.2       1 <0>         0.3081
     22 C22        -2.3200   -1.1450    7.8190 C.3       1 <0>         0.4175
     23 N1          5.7480    5.1820    8.6540 N.pl3     1 <0>        -0.3425
     24 N2          7.6450    6.1770    7.7750 N.ar      1 <0>        -0.2204
     25 N3          7.5500    8.1660    6.6060 N.ar      1 <0>        -0.2183
     26 N4          4.1520    8.7370    6.7720 N.2       1 <0>        -0.1770
     27 N5         -0.3080    5.0370    9.2080 N.am      1 <0>        -0.2692
     28 N6         -1.9640    3.5470    9.3470 N.am      1 <0>        -0.2692
     29 N7          5.2760    9.0850    6.3950 N.pl3     1 <0>        -0.2034
     30 O1         -0.0200    2.9710    8.3680 O.2       1 <0>        -0.2522
     31 F1         -1.1040   -0.9320    7.3280 F         1 <0>        -0.1659
     32 F2         -2.2560   -2.1120    8.7290 F         1 <0>        -0.1659
     33 F3         -3.1270   -1.5200    6.8320 F         1 <0>        -0.1659
     34 H1          4.6034   11.6114    7.0412 H         1 <0>         0.0248
     35 H2          4.7518   12.2934    5.3862 H         1 <0>         0.0248
     36 H3          3.5186   11.0336    5.7314 H         1 <0>         0.0248
     37 H4          6.2114    9.1721    3.8833 H         1 <0>         0.0248
     38 H5          4.4661    9.5963    3.8706 H         1 <0>         0.0248
     39 H6          5.6993   10.8561    3.5255 H         1 <0>         0.0248
     40 H7         -5.7212    1.2039    9.9702 H         1 <0>         0.0618
     41 H8         -4.7742   -0.7984    8.8744 H         1 <0>         0.0623
     42 H9         -4.3483    3.2439   10.1846 H         1 <0>         0.0636
     43 H10         3.6704    5.0175    7.0581 H         1 <0>         0.0625
     44 H11         2.4457    8.5626    9.1045 H         1 <0>         0.0625
     45 H12         1.6379    3.8559    7.8381 H         1 <0>         0.0636
     46 H13         0.4168    7.4014    9.8901 H         1 <0>         0.0636
     47 H14        -1.1013    1.2925    8.2162 H         1 <0>         0.0642
     48 H15         9.3050    7.1309    6.9718 H         1 <0>         0.1048
     49 H16         6.5548   10.6712    5.8379 H         1 <0>         0.0515
     50 H17         6.4470    4.5307    8.9492 H         1 <0>         0.1437
     51 H18         5.2829    5.5577    9.4556 H         1 <0>         0.1437
     52 H19        -0.9497    5.6319    9.6920 H         1 <0>         0.1564
     53 H20        -2.4441    4.2955    9.8044 H         1 <0>         0.1564
@<TRIPOS>BOND
     1    1   20 1
     2    2   20 1
     3    3    4 ar
     4    3    5 ar
     5    4   14 ar
     6    5   15 ar
     7    6    8 ar
     8    6   12 ar
     9    7    9 ar
    10    7   12 ar
    11    8   13 ar
    12    9   13 ar
    13   10   14 ar
    14   10   15 ar
    15   11   24 ar
    16   11   25 ar
    17   12   17 1
    18   13   27 1
    19   14   22 1
    20   15   28 1
    21   16   17 1
    22   16   18 ar
    23   16   19 ar
    24   17   26 2
    25   18   23 1
    26   18   24 ar
    27   19   25 ar
    28   19   29 1
    29   20   29 1
    30   21   27 am
    31   21   28 am
    32   21   30 2
    33   22   31 1
    34   22   32 1
    35   22   33 1
    36   26   29 1
    37    1   34 1
    38    1   35 1
    39    1   36 1
    40    2   37 1
    41    2   38 1
    42    2   39 1
    43    3   40 1
    44    4   41 1
    45    5   42 1
    46    6   43 1
    47    7   44 1
    48    8   45 1
    49    9   46 1
    50   10   47 1
    51   11   48 1
    52   20   49 1
    53   23   50 1
    54   23   51 1
    55   27   52 1
    56   28   53 1
