@<TRIPOS>MOLECULE
SUB_201_1J4H
   60    62     0     0     0
SMALL
USER_CHARGES

@<TRIPOS>ATOM
      1 C1        -31.7900   45.2960   33.7970 C.3       1 <0>        -0.0410
      2 C2        -32.2770   33.0530   30.6480 C.3       1 <0>        -0.0397
      3 C3        -35.3940   35.2490   34.7090 C.ar      1 <0>        -0.0617
      4 C4        -34.3560   35.4900   33.7060 C.ar      1 <0>        -0.0615
      5 C5        -35.6240   36.2480   35.7470 C.ar      1 <0>        -0.0615
      6 C6        -33.5520   36.7180   33.7510 C.ar      1 <0>        -0.0585
      7 C7        -34.8220   37.4420   35.7710 C.ar      1 <0>        -0.0585
      8 C8        -34.7880   33.7410   30.3580 C.ar      1 <0>        -0.0570
      9 C9        -32.9580   35.4100   30.0530 C.ar      1 <0>        -0.0570
     10 C10       -35.7610   34.7560   30.0760 C.ar      1 <0>        -0.0348
     11 C11       -33.9640   36.4310   29.7670 C.ar      1 <0>        -0.0348
     12 C12       -37.3890   37.6300   32.3800 C.3       1 <0>         0.0395
     13 C13       -38.7940   38.1420   32.4040 C.3       1 <0>         0.0109
     14 C14       -38.0220   40.0570   31.1130 C.3       1 <0>         0.0222
     15 C15       -31.9220   43.7000   33.5740 C.3       1 <0>         0.0543
     16 C16       -32.9450   39.0340   34.9280 C.3       1 <0>         0.0001
     17 C17       -33.3500   34.0810   30.3470 C.ar      1 <0>        -0.0503
     18 C18       -33.7890   37.7220   34.8100 C.ar      1 <0>        -0.0451
     19 C19       -35.3380   36.1030   29.7820 C.ar      1 <0>         0.1084
     20 C20       -36.4580   39.3720   30.9750 C.3       1 <0>         0.1256
     21 C21       -33.6240   39.7710   33.5780 C.3       1 <0>         0.1126
     22 C22       -35.5290   39.8570   31.9630 C.2       1 <0>         0.2363
     23 C23       -33.0090   41.1180   33.4290 C.2       1 <0>         0.2830
     24 N1        -34.5150   39.0560   32.6350 N.am      1 <0>        -0.3014
     25 N2        -36.7040   37.8210   31.1070 N.pl3     1 <0>        -0.2206
     26 O1        -35.8130   41.2860   32.3430 O.2       1 <0>        -0.2737
     27 O2        -32.2730   41.0210   31.9540 O.2       1 <0>        -0.2629
     28 O3        -36.2430   38.2380   28.4390 O.2       1 <0>        -0.1501
     29 O4        -37.7980   36.4120   29.5800 O.2       1 <0>        -0.1501
     30 O5        -32.7650   42.4710   34.0890 O.3       1 <0>        -0.3141
     31 S1        -38.6960   39.6760   32.6280 S.3       1 <0>        -0.1568
     32 S2        -36.5860   37.2930   29.4710 S.o2      1 <0>         0.0713
     33 H1        -30.9960   45.6931   33.1474 H         1 <0>         0.0252
     34 H2        -32.7450   45.7812   33.5469 H         1 <0>         0.0252
     35 H3        -31.5393   45.4996   34.8485 H         1 <0>         0.0252
     36 H4        -31.9652   32.5633   29.7137 H         1 <0>         0.0278
     37 H5        -31.4106   33.5513   31.1074 H         1 <0>         0.0278
     38 H6        -32.6766   32.2985   31.3416 H         1 <0>         0.0278
     39 H7        -35.9820   34.3435   34.6812 H         1 <0>         0.0618
     40 H8        -34.1804   34.7610   32.9287 H         1 <0>         0.0618
     41 H9        -36.3905   36.0923   36.4917 H         1 <0>         0.0618
     42 H10       -32.7860   36.8881   33.0089 H         1 <0>         0.0620
     43 H11       -35.0050   38.1659   36.5513 H         1 <0>         0.0620
     44 H12       -35.1049   32.7322   30.5775 H         1 <0>         0.0621
     45 H13       -31.9099   35.6703   30.0401 H         1 <0>         0.0621
     46 H14       -36.8128   34.5111   30.0838 H         1 <0>         0.0637
     47 H15       -33.6553   37.4414   29.5430 H         1 <0>         0.0637
     48 H16       -36.8203   38.1661   33.1540 H         1 <0>         0.0486
     49 H17       -37.4186   36.5506   32.5896 H         1 <0>         0.0486
     50 H18       -39.3009   37.9226   31.4527 H         1 <0>         0.0392
     51 H19       -39.3632   37.6688   33.2177 H         1 <0>         0.0392
     52 H20       -37.9495   41.1500   31.0127 H         1 <0>         0.0400
     53 H21       -38.6661   39.6539   30.3176 H         1 <0>         0.0400
     54 H22       -32.1684   43.6715   32.5023 H         1 <0>         0.0563
     55 H23       -30.9101   43.3776   33.8607 H         1 <0>         0.0563
     56 H24       -33.0857   39.5853   35.8694 H         1 <0>         0.0336
     57 H25       -31.8568   38.8847   34.8688 H         1 <0>         0.0336
     58 H26       -35.9829   39.6493   30.0224 H         1 <0>         0.0618
     59 H27       -34.6729   39.8485   33.2557 H         1 <0>         0.0606
     60 H28       -34.4249   38.0741   32.4684 H         1 <0>         0.1495
@<TRIPOS>BOND
     1    1   15 1
     2    2   17 1
     3    3    4 ar
     4    3    5 ar
     5    4    6 ar
     6    5    7 ar
     7    6   18 ar
     8    7   18 ar
     9    8   10 ar
    10    8   17 ar
    11    9   11 ar
    12    9   17 ar
    13   10   19 ar
    14   11   19 ar
    15   12   13 1
    16   12   25 1
    17   13   31 1
    18   14   20 1
    19   14   31 1
    20   15   30 1
    21   16   18 1
    22   16   21 1
    23   19   32 1
    24   20   22 1
    25   20   25 1
    26   21   23 1
    27   21   24 1
    28   22   24 am
    29   22   26 2
    30   23   27 2
    31   23   30 1
    32   25   32 1
    33   28   32 2
    34   29   32 2
    35    1   33 1
    36    1   34 1
    37    1   35 1
    38    2   36 1
    39    2   37 1
    40    2   38 1
    41    3   39 1
    42    4   40 1
    43    5   41 1
    44    6   42 1
    45    7   43 1
    46    8   44 1
    47    9   45 1
    48   10   46 1
    49   11   47 1
    50   12   48 1
    51   12   49 1
    52   13   50 1
    53   13   51 1
    54   14   52 1
    55   14   53 1
    56   15   54 1
    57   15   55 1
    58   16   56 1
    59   16   57 1
    60   20   58 1
    61   21   59 1
    62   24   60 1
