@<TRIPOS>MOLECULE
BTB_A1501_2V3F
   34    33     0     0     0
SMALL
USER_CHARGES

@<TRIPOS>ATOM
      1 C1         34.3160   31.9430    0.8870 C.3       1 <0>        -0.0073
      2 C2         35.9850   32.6620   -0.8670 C.3       1 <0>        -0.0073
      3 C3         33.6020   33.2610    0.5850 C.3       1 <0>         0.0841
      4 C4         36.3310   31.4990   -1.7910 C.3       1 <0>         0.0841
      5 C5         36.5070   32.0990    2.8530 C.3       1 <0>         0.0940
      6 C6         38.1020   32.3630    0.9680 C.3       1 <0>         0.0940
      7 C7         36.9110   30.1650    1.3240 C.3       1 <0>         0.0940
      8 C8         36.7990   31.7020    1.4050 C.3       1 <0>         0.0605
      9 N1         35.7100   32.1190    0.4900 N.4       1 <0>         0.2477
     10 O1         33.6150   34.0030    1.8120 O.3       1 <0>        -0.3898
     11 O2         35.4620   30.3840   -1.5460 O.3       1 <0>        -0.3898
     12 O3         36.1110   33.4960    2.9800 O.3       1 <0>        -0.3890
     13 O4         39.1590   31.9790    1.8530 O.3       1 <0>        -0.3890
     14 O5         37.4230   29.6060    2.5380 O.3       1 <0>        -0.3890
     15 H1         34.2497   31.7083    1.9596 H         1 <0>         0.0837
     16 H2         33.8570   31.1198    0.3198 H         1 <0>         0.0837
     17 H3         36.8284   33.3668   -0.8228 H         1 <0>         0.0837
     18 H4         35.0958   33.1873   -1.2457 H         1 <0>         0.0837
     19 H5         34.1252   33.8136   -0.2092 H         1 <0>         0.0610
     20 H6         32.5697   33.0768    0.2528 H         1 <0>         0.0610
     21 H7         36.2152   31.8227   -2.8359 H         1 <0>         0.0610
     22 H8         37.3713   31.1915   -1.6085 H         1 <0>         0.0610
     23 H9         35.6872   31.4690    3.2284 H         1 <0>         0.0618
     24 H10        37.4181   31.9396    3.4485 H         1 <0>         0.0618
     25 H11        38.3483   32.0433   -0.0553 H         1 <0>         0.0618
     26 H12        37.9833   33.4563    0.9937 H         1 <0>         0.0618
     27 H13        35.9106   29.7475    1.1374 H         1 <0>         0.0618
     28 H14        37.5916   29.9035    0.5003 H         1 <0>         0.0618
     29 H15        36.3386   32.7767    0.9051 H         1 <0>         0.2043
     30 H16        33.1809   34.8380    1.6823 H         1 <0>         0.2096
     31 H17        35.6908   29.6696   -2.1289 H         1 <0>         0.2096
     32 H18        35.9407   33.6956    3.8930 H         1 <0>         0.2097
     33 H19        39.9689   32.3924    1.5779 H         1 <0>         0.2097
     34 H20        37.4787   28.6614    2.4534 H         1 <0>         0.2097
@<TRIPOS>BOND
     1    1    3 1
     2    1    9 1
     3    2    4 1
     4    2    9 1
     5    3   10 1
     6    4   11 1
     7    5    8 1
     8    5   12 1
     9    6    8 1
    10    6   13 1
    11    7    8 1
    12    7   14 1
    13    8    9 1
    14    1   15 1
    15    1   16 1
    16    2   17 1
    17    2   18 1
    18    3   19 1
    19    3   20 1
    20    4   21 1
    21    4   22 1
    22    5   23 1
    23    5   24 1
    24    6   25 1
    25    6   26 1
    26    7   27 1
    27    7   28 1
    28    9   29 1
    29   10   30 1
    30   11   31 1
    31   12   32 1
    32   13   33 1
    33   14   34 1
