@<TRIPOS>MOLECULE
FAP_A1300_1H00
   54    56     0     0     0
SMALL
USER_CHARGES

@<TRIPOS>ATOM
      1 C1          6.4420   19.8810    6.6120 C.3       1 <0>        -0.0433
      2 C2          4.8050   19.2050    8.2910 C.3       1 <0>        -0.0433
      3 C3         -1.7340   27.4480   12.7920 C.ar      1 <0>        -0.0562
      4 C4         -2.8640   27.9370   12.0910 C.ar      1 <0>        -0.0244
      5 C5         -0.4620   28.0280   12.5840 C.ar      1 <0>        -0.0244
      6 C6          3.6480   28.5750    8.4680 C.ar      1 <0>        -0.0381
      7 C7          3.7950   28.5970    6.0100 C.ar      1 <0>        -0.0381
      8 C8          4.2480   27.2990    8.5010 C.ar      1 <0>        -0.0299
      9 C9          4.3990   27.3140    6.0420 C.ar      1 <0>        -0.0299
     10 C10         0.7130   30.5170    8.5790 C.ar      1 <0>         0.0185
     11 C11         0.3260   33.1000    7.8560 C.ar      1 <0>         0.1201
     12 C12         4.7670   21.5370    7.4440 C.3       1 <0>        -0.0036
     13 C13         4.4640   24.1590    7.6170 C.3       1 <0>         0.0851
     14 C14         3.4120   29.2380    7.2190 C.ar      1 <0>         0.0325
     15 C15         4.6280   26.6560    7.2930 C.ar      1 <0>         0.0764
     16 C16        -2.7310   29.0150   11.1770 C.ar      1 <0>         0.1473
     17 C17        -0.3090   29.1050   11.6740 C.ar      1 <0>         0.1473
     18 C18         1.6140   31.1970    7.6890 C.ar      1 <0>         0.1279
     19 C19        -0.4010   31.2770    9.0660 C.ar      1 <0>         0.1280
     20 C20        -1.4540   29.6170   10.9470 C.ar      1 <0>         0.1037
     21 C21         5.3960   22.9350    7.6620 C.3       1 <0>         0.1184
     22 N1          1.3960   32.4840    7.3450 N.ar      1 <0>        -0.2205
     23 N2         -0.5690   32.5630    8.6890 N.ar      1 <0>        -0.2205
     24 N3          2.7940   30.5570    7.1260 N.pl3     1 <0>        -0.2993
     25 N4         -1.3980   30.7320    9.9800 N.pl3     1 <0>        -0.2948
     26 N5          5.6170   20.3410    7.7610 N.4       1 <0>         0.2328
     27 O1          6.2510   22.9720    8.7540 O.3       1 <0>        -0.3842
     28 O2          5.2070   25.3980    7.4400 O.3       1 <0>        -0.3419
     29 F1         -3.8490   29.4590   10.5210 F         1 <0>        -0.2034
     30 F2          0.9450   29.6210   11.5160 F         1 <0>        -0.2034
     31 H1          7.0370   20.7223    6.2270 H         1 <0>         0.0777
     32 H2          7.1157   19.0769    6.9432 H         1 <0>         0.0777
     33 H3          5.7835   19.5033    5.8160 H         1 <0>         0.0777
     34 H4          4.1978   19.5523    9.1399 H         1 <0>         0.0777
     35 H5          4.1435   18.8260    7.4980 H         1 <0>         0.0777
     36 H6          5.4757   18.3997    8.6252 H         1 <0>         0.0777
     37 H7         -1.8450   26.6293   13.4876 H         1 <0>         0.0619
     38 H8         -3.8323   27.4869   12.2530 H         1 <0>         0.0647
     39 H9          0.3962   27.6499   13.1197 H         1 <0>         0.0647
     40 H10         3.3638   29.0569    9.3918 H         1 <0>         0.0637
     41 H11         3.6256   29.0885    5.0634 H         1 <0>         0.0637
     42 H12         4.4191   26.8092    9.4482 H         1 <0>         0.0644
     43 H13         4.6872   26.8317    5.1196 H         1 <0>         0.0644
     44 H14         0.8671   29.4873    8.8659 H         1 <0>         0.0686
     45 H15         0.1703   34.1292    7.5682 H         1 <0>         0.1048
     46 H16         3.8801   21.4803    8.0922 H         1 <0>         0.0841
     47 H17         4.5016   21.4679    6.3787 H         1 <0>         0.0841
     48 H18         3.7680   24.0415    6.7733 H         1 <0>         0.0593
     49 H19         3.9076   24.2137    8.5643 H         1 <0>         0.0593
     50 H20         5.9860   23.0557    6.7415 H         1 <0>         0.0670
     51 H21         3.3077   31.1726    6.5284 H         1 <0>         0.1536
     52 H22        -2.2586   31.2400    9.9428 H         1 <0>         0.1537
     53 H23         6.2464   20.6506    8.4738 H         1 <0>         0.2029
     54 H24         6.6102   23.8466    8.8460 H         1 <0>         0.2101
@<TRIPOS>BOND
     1    1   26 1
     2    2   26 1
     3    3    4 ar
     4    3    5 ar
     5    4   16 ar
     6    5   17 ar
     7    6    8 ar
     8    6   14 ar
     9    7    9 ar
    10    7   14 ar
    11    8   15 ar
    12    9   15 ar
    13   10   18 ar
    14   10   19 ar
    15   11   22 ar
    16   11   23 ar
    17   12   21 1
    18   12   26 1
    19   13   21 1
    20   13   28 1
    21   14   24 1
    22   15   28 1
    23   16   20 ar
    24   16   29 1
    25   17   20 ar
    26   17   30 1
    27   18   22 ar
    28   18   24 1
    29   19   23 ar
    30   19   25 1
    31   20   25 1
    32   21   27 1
    33    1   31 1
    34    1   32 1
    35    1   33 1
    36    2   34 1
    37    2   35 1
    38    2   36 1
    39    3   37 1
    40    4   38 1
    41    5   39 1
    42    6   40 1
    43    7   41 1
    44    8   42 1
    45    9   43 1
    46   10   44 1
    47   11   45 1
    48   12   46 1
    49   12   47 1
    50   13   48 1
    51   13   49 1
    52   21   50 1
    53   24   51 1
    54   25   52 1
    55   26   53 1
    56   27   54 1
