@<TRIPOS>MOLECULE
AGE_500_3F07
   39    40     0     0     0
SMALL
USER_CHARGES

@<TRIPOS>ATOM
      1 C1        -28.6860   31.6210  -40.5910 C.3       1 <0>         0.0050
      2 C2        -22.6810   31.9490  -45.4140 C.ar      1 <0>        -0.0617
      3 C3        -23.9330   31.5200  -44.7930 C.ar      1 <0>        -0.0615
      4 C4        -21.5320   32.2840  -44.5650 C.ar      1 <0>        -0.0615
      5 C5        -24.0350   31.4280  -43.3290 C.ar      1 <0>        -0.0582
      6 C6        -21.6490   32.1850  -43.1150 C.ar      1 <0>        -0.0582
      7 C7        -25.8260   29.6680  -39.4450 C.2       1 <0>        -0.0328
      8 C8        -26.2540   31.7800  -40.2470 C.2       1 <0>         0.0067
      9 C9        -28.3030   28.6660  -39.5160 C.3       1 <0>        -0.0060
     10 C10       -28.2540   27.3420  -39.0520 C.3       1 <0>         0.0311
     11 C11       -22.7960   31.7270  -40.8910 C.3       1 <0>         0.0357
     12 C12       -22.8920   31.7590  -42.4440 C.ar      1 <0>        -0.0399
     13 C13       -25.2330   30.9450  -39.7890 C.2       1 <0>         0.0331
     14 C14       -27.2160   29.7150  -39.6950 C.2       1 <0>         0.0113
     15 C15       -29.5150   26.4580  -38.9710 C.2       1 <0>         0.2358
     16 C16       -23.7630   31.3790  -39.6860 C.2       1 <0>         0.1687
     17 N1        -29.3170   25.1940  -38.5060 N.am      1 <0>        -0.1975
     18 N2        -27.3910   31.0390  -40.1790 N.pl3     1 <0>        -0.3121
     19 O1        -30.3160   24.3350  -38.3920 O.3       1 <0>        -0.2952
     20 O2        -30.6400   26.8100  -39.2920 O.2       1 <0>        -0.2737
     21 O3        -23.3360   31.4600  -38.5510 O.2       1 <0>        -0.2917
     22 H1        -29.4819   30.8723  -40.4645 H         1 <0>         0.0431
     23 H2        -28.9074   32.5002  -39.9681 H         1 <0>         0.0431
     24 H3        -28.6323   31.9239  -41.6471 H         1 <0>         0.0431
     25 H4        -22.6024   32.0188  -46.4889 H         1 <0>         0.0618
     26 H5        -24.7836   31.2705  -45.4099 H         1 <0>         0.0618
     27 H6        -20.6024   32.6029  -45.0128 H         1 <0>         0.0618
     28 H7        -24.9676   31.1108  -42.8862 H         1 <0>         0.0620
     29 H8        -20.7912   32.4335  -42.5077 H         1 <0>         0.0620
     30 H9        -25.2895   28.8142  -39.0582 H         1 <0>         0.0640
     31 H10       -26.1598   32.8015  -40.5848 H         1 <0>         0.0790
     32 H11       -28.6957   28.5492  -40.5369 H         1 <0>         0.0330
     33 H12       -28.9865   29.1469  -38.8008 H         1 <0>         0.0330
     34 H13       -27.5699   26.8164  -39.7345 H         1 <0>         0.0363
     35 H14       -27.8728   27.4053  -38.0221 H         1 <0>         0.0363
     36 H15       -21.9919   30.9916  -40.7405 H         1 <0>         0.0394
     37 H16       -22.5453   32.7749  -40.6696 H         1 <0>         0.0394
     38 H17       -28.3950   24.9085  -38.2446 H         1 <0>         0.1822
     39 H18       -31.1231   24.7476  -38.6764 H         1 <0>         0.2414
@<TRIPOS>BOND
     1    1   18 1
     2    2    3 ar
     3    2    4 ar
     4    3    5 ar
     5    4    6 ar
     6    5   12 ar
     7    6   12 ar
     8    7   13 1
     9    7   14 2
    10    8   13 2
    11    8   18 1
    12    9   10 1
    13    9   14 1
    14   10   15 1
    15   11   12 1
    16   11   16 1
    17   13   16 1
    18   14   18 1
    19   15   17 am
    20   15   20 2
    21   16   21 2
    22   17   19 1
    23    1   22 1
    24    1   23 1
    25    1   24 1
    26    2   25 1
    27    3   26 1
    28    4   27 1
    29    5   28 1
    30    6   29 1
    31    7   30 1
    32    8   31 1
    33    9   32 1
    34    9   33 1
    35   10   34 1
    36   10   35 1
    37   11   36 1
    38   11   37 1
    39   17   38 1
    40   19   39 1
