@<TRIPOS>MOLECULE
5BM_1_3EQH
   42    43     0     0     0
SMALL
USER_CHARGES

@<TRIPOS>ATOM
      1 C1         -5.1600   54.1170   29.4590 C.ar      1 <0>        -0.0600
      2 C2          2.6680   63.6810   32.9300 C.ar      1 <0>        -0.0600
      3 C3         -4.0480   54.9890   29.4230 C.ar      1 <0>        -0.0606
      4 C4          3.3470   62.6940   33.6610 C.ar      1 <0>        -0.0606
      5 C5         -5.5490   53.5100   30.6600 C.ar      1 <0>        -0.0400
      6 C6          1.2480   63.7260   32.9010 C.ar      1 <0>        -0.0400
      7 C7         -3.3200   55.2470   30.5950 C.ar      1 <0>        -0.0462
      8 C8          2.6340   61.7370   34.3620 C.ar      1 <0>        -0.0462
      9 C9         -0.3030   56.2970   33.8790 C.1       1 <0>         0.1029
     10 C10        -2.0020   58.7300   35.5890 C.1       1 <0>         0.1029
     11 C11        -4.8210   53.7630   31.8450 C.ar      1 <0>         0.0385
     12 C12         0.5120   62.7550   33.6100 C.ar      1 <0>         0.0385
     13 C13        -3.7050   54.6440   31.8110 C.ar      1 <0>         0.0345
     14 C14         1.2360   61.7500   34.3370 C.ar      1 <0>         0.0345
     15 C15        -1.3930   57.2140   33.8100 C.2       1 <0>         0.0988
     16 C16        -1.1740   58.4790   34.4540 C.2       1 <0>         0.0988
     17 C17        -2.6050   56.6980   33.5330 C.2       1 <0>         0.0824
     18 C18        -0.0730   59.2340   34.2070 C.2       1 <0>         0.0824
     19 N1         -5.2110   53.1700   32.9850 N.pl3     1 <0>        -0.3571
     20 N2         -0.8360   62.7920   33.5870 N.pl3     1 <0>        -0.3571
     21 N3         -3.8140   57.3410   33.4220 N.pl3     1 <0>        -0.3516
     22 N4          0.8360   59.1210   33.1460 N.pl3     1 <0>        -0.3516
     23 N5          0.5780   55.5650   33.9350 N.1       1 <0>        -0.1908
     24 N6         -2.7190   58.8910   36.5040 N.1       1 <0>        -0.1908
     25 S1         -2.7680   54.9500   33.2910 S.3       1 <0>        -0.0715
     26 S2          0.3960   60.5360   35.2570 S.3       1 <0>        -0.0715
     27 H1         -5.7139   53.9173   28.5536 H         1 <0>         0.0618
     28 H2          3.2341   64.4185   32.3804 H         1 <0>         0.0618
     29 H3         -3.7585   55.4568   28.4936 H         1 <0>         0.0618
     30 H4          4.4268   62.6812   33.6766 H         1 <0>         0.0618
     31 H5         -6.4036   52.8499   30.6806 H         1 <0>         0.0636
     32 H6          0.7379   64.4962   32.3415 H         1 <0>         0.0636
     33 H7         -2.4655   55.9068   30.5660 H         1 <0>         0.0629
     34 H8          3.1572   60.9805   34.9281 H         1 <0>         0.0629
     35 H9         -4.6025   53.4449   33.7294 H         1 <0>         0.1424
     36 H10        -6.1475   53.4464   33.2009 H         1 <0>         0.1424
     37 H11        -1.2000   62.0395   34.1359 H         1 <0>         0.1424
     38 H12        -1.1519   63.6626   33.9641 H         1 <0>         0.1424
     39 H13        -4.5280   56.6746   33.2071 H         1 <0>         0.1428
     40 H14        -4.0308   57.7945   34.2865 H         1 <0>         0.1428
     41 H15         1.5441   59.8212   33.2371 H         1 <0>         0.1428
     42 H16         1.2590   58.2151   33.1647 H         1 <0>         0.1428
@<TRIPOS>BOND
     1    1    3 ar
     2    1    5 ar
     3    2    4 ar
     4    2    6 ar
     5    3    7 ar
     6    4    8 ar
     7    5   11 ar
     8    6   12 ar
     9    7   13 ar
    10    8   14 ar
    11    9   15 1
    12    9   23 3
    13   10   16 1
    14   10   24 3
    15   11   13 ar
    16   11   19 1
    17   12   14 ar
    18   12   20 1
    19   13   25 1
    20   14   26 1
    21   15   16 1
    22   15   17 2
    23   16   18 2
    24   17   21 1
    25   17   25 1
    26   18   22 1
    27   18   26 1
    28    1   27 1
    29    2   28 1
    30    3   29 1
    31    4   30 1
    32    5   31 1
    33    6   32 1
    34    7   33 1
    35    8   34 1
    36   19   35 1
    37   19   36 1
    38   20   37 1
    39   20   38 1
    40   21   39 1
    41   21   40 1
    42   22   41 1
    43   22   42 1
