@<TRIPOS>MOLECULE
4HI_1_3CCW
   67    69     0     0     0
SMALL
USER_CHARGES

@<TRIPOS>ATOM
      1 C1        -14.3070    4.3850   46.0420 C.3       1 <0>        -0.0574
      2 C2        -15.2970    5.0090   43.7820 C.3       1 <0>        -0.0574
      3 C3        -19.6170    3.1510   50.5480 C.ar      1 <0>        -0.0617
      4 C4        -20.7300    3.7310   49.9480 C.ar      1 <0>        -0.0615
      5 C5        -18.3900    3.8070   50.5130 C.ar      1 <0>        -0.0615
      6 C6        -20.6090    4.9650   49.3150 C.ar      1 <0>        -0.0571
      7 C7        -18.2710    5.0400   49.8760 C.ar      1 <0>        -0.0571
      8 C8        -12.5420    9.9450   46.8700 C.ar      1 <0>        -0.0486
      9 C9        -14.3100   11.0670   45.6570 C.ar      1 <0>        -0.0486
     10 C10       -11.8250   11.1370   46.9350 C.ar      1 <0>        -0.0258
     11 C11       -13.5910   12.2590   45.7270 C.ar      1 <0>        -0.0258
     12 C12       -13.1670    7.7950   43.4070 C.3       1 <0>        -0.0106
     13 C13       -12.9650    7.2210   44.8150 C.3       1 <0>         0.0208
     14 C14       -19.3110    6.9570   48.5760 C.3       1 <0>         0.0372
     15 C15       -12.5560    7.9950   40.9970 C.3       1 <0>        -0.0003
     16 C16       -13.1250    9.8910   39.4840 C.3       1 <0>         0.0130
     17 C17       -19.3870    5.6160   49.2710 C.ar      1 <0>        -0.0303
     18 C18       -13.7730    9.9080   46.2130 C.ar      1 <0>         0.0154
     19 C19       -12.3500   12.2960   46.3670 C.ar      1 <0>         0.1234
     20 C20       -15.2460    6.6210   45.7200 C.2       1 <0>         0.0452
     21 C21       -16.1990    7.3140   46.4610 C.2       1 <0>         0.1449
     22 C22       -14.5490    8.6500   46.1400 C.2       1 <0>         0.1334
     23 C23       -15.3620    5.2000   45.2940 C.3       1 <0>        -0.0060
     24 C24       -12.0800    7.5030   42.3610 C.3       1 <0>         0.0590
     25 C25       -12.6680    9.5140   40.8890 C.3       1 <0>         0.0626
     26 C26       -13.5930   11.3300   39.4420 C.2       1 <0>         0.0442
     27 C27       -17.4980    6.7430   46.8860 C.2       1 <0>         0.2642
     28 N1        -15.7600    8.5480   46.7000 N.2       1 <0>        -0.2249
     29 N2        -17.9750    7.1730   48.0490 N.am      1 <0>        -0.3059
     30 N3        -14.2130    7.4770   45.5500 N.pl3     1 <0>        -0.2858
     31 O1        -11.8150    6.1130   42.2140 O.3       1 <0>        -0.3916
     32 O2        -11.4080   10.0990   41.1230 O.3       1 <0>        -0.3913
     33 O3        -12.8540   12.1870   38.8910 O.co2     1 <0>        -0.5497
     34 O4        -14.7000   11.5990   39.9710 O.co2     1 <0>        -0.5497
     35 O5        -18.1900    6.1200   46.0850 O.2       1 <0>        -0.2685
     36 F1        -11.6550   13.4490   46.4290 F         1 <0>        -0.2055
     37 H1        -14.4036    4.5635   47.1231 H         1 <0>         0.0236
     38 H2        -14.4540    3.3152   45.8326 H         1 <0>         0.0236
     39 H3        -13.3041    4.6897   45.7084 H         1 <0>         0.0236
     40 H4        -16.0768    5.6179   43.3011 H         1 <0>         0.0236
     41 H5        -14.3086    5.3229   43.4151 H         1 <0>         0.0236
     42 H6        -15.4585    3.9483   43.5393 H         1 <0>         0.0236
     43 H7        -19.7049    2.1936   51.0400 H         1 <0>         0.0618
     44 H8        -21.6843    3.2259   49.9732 H         1 <0>         0.0618
     45 H9        -17.5266    3.3582   50.9816 H         1 <0>         0.0618
     46 H10       -21.4745    5.4183   48.8547 H         1 <0>         0.0621
     47 H11       -17.3181    5.5476   49.8509 H         1 <0>         0.0621
     48 H12       -12.1461    9.0503   47.3273 H         1 <0>         0.0625
     49 H13       -15.2763   11.0421   45.1753 H         1 <0>         0.0625
     50 H14       -10.8630   11.1631   47.4252 H         1 <0>         0.0646
     51 H15       -13.9950   13.1576   45.2846 H         1 <0>         0.0646
     52 H16       -14.1052    7.3706   43.0202 H         1 <0>         0.0305
     53 H17       -13.2238    8.8885   43.5125 H         1 <0>         0.0305
     54 H18       -12.7612    6.1412   44.7656 H         1 <0>         0.0469
     55 H19       -12.1163    7.7121   45.3135 H         1 <0>         0.0469
     56 H20       -20.0349    6.9777   47.7481 H         1 <0>         0.0512
     57 H21       -19.5493    7.7529   49.2970 H         1 <0>         0.0512
     58 H22       -11.8334    7.6531   40.2414 H         1 <0>         0.0315
     59 H23       -13.5518    7.5668   40.8100 H         1 <0>         0.0315
     60 H24       -12.2834    9.7663   38.7868 H         1 <0>         0.0350
     61 H25       -13.9561    9.2340   39.1881 H         1 <0>         0.0350
     62 H26       -16.3643    4.8333   45.5605 H         1 <0>         0.0357
     63 H27       -11.1682    8.0116   42.7072 H         1 <0>         0.0594
     64 H28       -13.3937    9.8750   41.6327 H         1 <0>         0.0598
     65 H29       -17.3481    7.7010   48.6219 H         1 <0>         0.1494
     66 H30       -11.1388    5.9866   41.5588 H         1 <0>         0.2098
     67 H31       -11.4796   11.0439   41.0554 H         1 <0>         0.2098
@<TRIPOS>BOND
     1    1   23 1
     2    2   23 1
     3    3    4 ar
     4    3    5 ar
     5    4    6 ar
     6    5    7 ar
     7    6   17 ar
     8    7   17 ar
     9    8   10 ar
    10    8   18 ar
    11    9   11 ar
    12    9   18 ar
    13   10   19 ar
    14   11   19 ar
    15   12   13 1
    16   12   24 1
    17   13   30 1
    18   14   17 1
    19   14   29 1
    20   15   24 1
    21   15   25 1
    22   16   25 1
    23   16   26 1
    24   18   22 1
    25   19   36 1
    26   20   21 2
    27   20   23 1
    28   20   30 1
    29   21   27 1
    30   21   28 1
    31   22   28 2
    32   22   30 1
    33   24   31 1
    34   25   32 1
    35   26   33 1
    36   26   34 2
    37   27   29 am
    38   27   35 2
    39    1   37 1
    40    1   38 1
    41    1   39 1
    42    2   40 1
    43    2   41 1
    44    2   42 1
    45    3   43 1
    46    4   44 1
    47    5   45 1
    48    6   46 1
    49    7   47 1
    50    8   48 1
    51    9   49 1
    52   10   50 1
    53   11   51 1
    54   12   52 1
    55   12   53 1
    56   13   54 1
    57   13   55 1
    58   14   56 1
    59   14   57 1
    60   15   58 1
    61   15   59 1
    62   16   60 1
    63   16   61 1
    64   23   62 1
    65   24   63 1
    66   25   64 1
    67   29   65 1
    68   31   66 1
    69   32   67 1
