@<TRIPOS>MOLECULE
K30_1_3CJO
   64    67     0     0     0
SMALL
USER_CHARGES

@<TRIPOS>ATOM
      1 C1         12.6510   21.8440  109.7570 C.3       1 <0>        -0.0430
      2 C2         17.9100   18.4110  110.2190 C.3       1 <0>         0.0050
      3 C3         18.1600   13.0720  113.8660 C.ar      1 <0>        -0.0617
      4 C4         18.7830   14.1930  113.3090 C.ar      1 <0>        -0.0614
      5 C5         17.3260   12.3420  113.0510 C.ar      1 <0>        -0.0614
      6 C6         18.5390   14.4640  111.9160 C.ar      1 <0>        -0.0565
      7 C7         17.0570   12.6660  111.6550 C.ar      1 <0>        -0.0565
      8 C8         22.5730   15.3840  105.3700 C.ar      1 <0>        -0.0237
      9 C9         22.5850   14.2540  106.1840 C.ar      1 <0>        -0.0235
     10 C10        20.5240   16.1590  106.4350 C.ar      1 <0>        -0.0202
     11 C11        15.2570   19.3220  111.2690 C.3       1 <0>         0.0090
     12 C12        13.9770   20.1730  111.1400 C.3       1 <0>        -0.0302
     13 C13        18.9250   13.8490  108.9320 C.3       1 <0>        -0.0167
     14 C14        13.9780   20.0640  108.6330 C.3       1 <0>         0.0015
     15 C15        18.4480   15.9770  108.1590 C.3       1 <0>         0.0241
     16 C16        16.1590   13.8360  108.8560 C.3       1 <0>         0.0698
     17 C17        17.6920   13.7260  111.0500 C.ar      1 <0>        -0.0217
     18 C18        21.5310   16.3250  105.5060 C.ar      1 <0>         0.1238
     19 C19        21.5310   14.0200  107.0960 C.ar      1 <0>         0.1270
     20 C20        20.4900   14.9560  107.2490 C.ar      1 <0>        -0.0048
     21 C21        15.4460   18.5370  109.9370 C.3       1 <0>         0.0680
     22 C22        19.3600   14.8260  108.1140 C.3       1 <0>         0.0051
     23 C23        15.3770   19.4550  108.7070 C.3       1 <0>         0.1588
     24 C24        16.6340   16.4090  110.0230 C.2       1 <0>         0.3056
     25 C25        17.5120   14.1540  109.4980 C.3       1 <0>         0.0875
     26 N1         13.9120   20.9790  109.8360 N.4       1 <0>         0.2352
     27 N2         17.5520   15.6400  109.2820 N.am      1 <0>        -0.2729
     28 N3         16.6500   17.7640  109.9710 N.am      1 <0>        -0.2823
     29 O1         15.9930   12.4730  108.6590 O.3       1 <0>        -0.3926
     30 O2         15.6870   15.8390  110.6690 O.2       1 <0>        -0.2524
     31 F1         21.5750   17.4130  104.7590 F         1 <0>        -0.2055
     32 F2         21.6310   12.8900  107.7890 F         1 <0>        -0.2052
     33 F3         16.2400   20.4850  108.9080 F         1 <0>        -0.2380
     34 H1         12.6472   22.4018  108.8089 H         1 <0>         0.0778
     35 H2         11.7609   21.1997  109.8067 H         1 <0>         0.0778
     36 H3         12.6389   22.5520  110.5988 H         1 <0>         0.0778
     37 H4         18.7157   17.6622  110.2080 H         1 <0>         0.0429
     38 H5         18.0967   19.1618  109.4370 H         1 <0>         0.0429
     39 H6         17.8815   18.9043  111.2018 H         1 <0>         0.0429
     40 H7         18.3269   12.7904  114.8952 H         1 <0>         0.0618
     41 H8         19.4226   14.8311  113.9008 H         1 <0>         0.0618
     42 H9         16.8399   11.4742  113.4717 H         1 <0>         0.0618
     43 H10        19.0515   15.3130  111.4883 H         1 <0>         0.0621
     44 H11        16.3543   12.0697  111.0920 H         1 <0>         0.0621
     45 H12        23.3547   15.5385  104.6410 H         1 <0>         0.0647
     46 H13        23.4039   13.5530  106.1180 H         1 <0>         0.0647
     47 H14        19.7659   16.9186  106.5562 H         1 <0>         0.0650
     48 H15        16.1252   19.9731  111.4484 H         1 <0>         0.0336
     49 H16        15.1583   18.6190  112.1093 H         1 <0>         0.0336
     50 H17        13.1101   19.4965  111.1694 H         1 <0>         0.0815
     51 H18        13.9477   20.8796  111.9826 H         1 <0>         0.0815
     52 H19        18.8813   12.9079  108.3643 H         1 <0>         0.0296
     53 H20        19.6282   13.7545  109.7726 H         1 <0>         0.0296
     54 H21        13.8342   20.6232  107.6967 H         1 <0>         0.0843
     55 H22        13.2006   19.2871  108.6782 H         1 <0>         0.0843
     56 H23        18.9881   16.9187  108.3366 H         1 <0>         0.0471
     57 H24        17.8937   16.0953  107.2163 H         1 <0>         0.0471
     58 H25        15.3594   14.1972  109.5194 H         1 <0>         0.0582
     59 H26        16.1021   14.3434  107.8817 H         1 <0>         0.0582
     60 H27        14.6036   17.8364  109.8393 H         1 <0>         0.0533
     61 H28        20.1396   14.0682  107.9467 H         1 <0>         0.0366
     62 H29        15.6159   18.8883  107.7949 H         1 <0>         0.0724
     63 H30        14.7057   21.5873  109.8327 H         1 <0>         0.2031
     64 H31        15.1460   12.3110  108.2604 H         1 <0>         0.2095
@<TRIPOS>BOND
     1    1   26 1
     2    2   28 1
     3    3    4 ar
     4    3    5 ar
     5    4    6 ar
     6    5    7 ar
     7    6   17 ar
     8    7   17 ar
     9    8    9 ar
    10    8   18 ar
    11    9   19 ar
    12   10   18 ar
    13   10   20 ar
    14   11   12 1
    15   11   21 1
    16   12   26 1
    17   13   22 1
    18   13   25 1
    19   14   23 1
    20   14   26 1
    21   15   22 1
    22   15   27 1
    23   16   25 1
    24   16   29 1
    25   17   25 1
    26   18   31 1
    27   19   20 ar
    28   19   32 1
    29   20   22 1
    30   21   23 1
    31   21   28 1
    32   23   33 1
    33   24   27 am
    34   24   28 am
    35   24   30 2
    36   25   27 1
    37    1   34 1
    38    1   35 1
    39    1   36 1
    40    2   37 1
    41    2   38 1
    42    2   39 1
    43    3   40 1
    44    4   41 1
    45    5   42 1
    46    6   43 1
    47    7   44 1
    48    8   45 1
    49    9   46 1
    50   10   47 1
    51   11   48 1
    52   11   49 1
    53   12   50 1
    54   12   51 1
    55   13   52 1
    56   13   53 1
    57   14   54 1
    58   14   55 1
    59   15   56 1
    60   15   57 1
    61   16   58 1
    62   16   59 1
    63   21   60 1
    64   22   61 1
    65   23   62 1
    66   26   63 1
    67   29   64 1
