@<TRIPOS>MOLECULE
IMS_700_2OYU
   55    57     0     0     0
SMALL
USER_CHARGES

@<TRIPOS>ATOM
      1 C1         21.0280   48.3140    5.6190 C.3       1 <0>        -0.0635
      2 C2         18.8570   47.8480   11.4390 C.3       1 <0>        -0.0256
      3 C3         25.4210   53.0200   12.4750 C.3       1 <0>         0.0430
      4 C4         19.1370   47.6630   16.1890 C.ar      1 <0>        -0.0482
      5 C5         17.7930   48.4810   14.3570 C.ar      1 <0>        -0.0482
      6 C6         18.0310   47.7060   17.0020 C.ar      1 <0>        -0.0427
      7 C7         16.6830   48.5200   15.1730 C.ar      1 <0>        -0.0427
      8 C8         23.1720   51.3710   13.8250 C.ar      1 <0>        -0.0299
      9 C9         22.3170   50.3000   14.1050 C.ar      1 <0>        -0.0369
     10 C10        22.2930   51.5060   11.6120 C.ar      1 <0>        -0.0224
     11 C11        20.0920   49.4540    5.3190 C.3       1 <0>        -0.0352
     12 C12        20.1760   50.2210    9.6700 C.3       1 <0>         0.0512
     13 C13        18.1160   48.1180    6.1740 C.3       1 <0>         0.0625
     14 C14        19.9190   48.8070   11.8580 C.2       1 <0>         0.0199
     15 C15        19.0010   48.0700   14.8830 C.ar      1 <0>         0.0377
     16 C16        16.8100   48.1290   16.4970 C.ar      1 <0>         0.0410
     17 C17        23.1730   51.9800   12.5790 C.ar      1 <0>         0.0765
     18 C18        21.4450   49.8250   13.1340 C.ar      1 <0>         0.0489
     19 C19        21.4370   50.4380   11.8950 C.ar      1 <0>         0.0043
     20 C20        20.4900   49.8050   11.0860 C.2       1 <0>        -0.0123
     21 C21        18.8530   49.4610    6.2070 C.3       1 <0>         0.0459
     22 C22        19.8330   49.2030    8.6070 C.2       1 <0>         0.2177
     23 C23        20.2220   47.9930   14.0640 C.2       1 <0>         0.2550
     24 N1         19.3340   49.8460    7.5390 N.am      1 <0>        -0.3100
     25 N2         20.5130   48.8760   13.0480 N.am      1 <0>        -0.2394
     26 O1         17.1810   48.1140    5.0710 O.3       1 <0>        -0.3932
     27 O2         20.0140   48.0060    8.7490 O.2       1 <0>        -0.2755
     28 O3         20.9480   47.0560   14.3590 O.2       1 <0>        -0.2693
     29 O4         24.0020   53.0480   12.3040 O.3       1 <0>        -0.3479
     30 Cl1        15.6260   48.1510   17.4230 Cl        1 <0>        -0.0835
     31 H1         21.8974   48.3662    4.9471 H         1 <0>         0.0230
     32 H2         21.3671   48.3833    6.6631 H         1 <0>         0.0230
     33 H3         20.5035   47.3592    5.4662 H         1 <0>         0.0230
     34 H4         19.3230   46.9474   11.0126 H         1 <0>         0.0290
     35 H5         18.2504   47.5681   12.3129 H         1 <0>         0.0290
     36 H6         18.2138   48.3211   10.6824 H         1 <0>         0.0290
     37 H7         25.8449   53.9933   12.1867 H         1 <0>         0.0529
     38 H8         25.6591   52.8143   13.5290 H         1 <0>         0.0529
     39 H9         25.8510   52.2307   11.8410 H         1 <0>         0.0529
     40 H10        20.0887   47.3185   16.5658 H         1 <0>         0.0625
     41 H11        17.7185   48.7685   13.3187 H         1 <0>         0.0625
     42 H12        18.1120   47.4097   18.0374 H         1 <0>         0.0632
     43 H13        15.7297   48.8498   14.7873 H         1 <0>         0.0632
     44 H14        23.8426   51.7297   14.5919 H         1 <0>         0.0644
     45 H15        22.3350   49.8398   15.0819 H         1 <0>         0.0637
     46 H16        22.2709   51.9665   10.6353 H         1 <0>         0.0650
     47 H17        20.6353   50.3972    5.4777 H         1 <0>         0.0281
     48 H18        19.7656   49.3658    4.2723 H         1 <0>         0.0281
     49 H19        19.2996   50.8819    9.7421 H         1 <0>         0.0408
     50 H20        21.0758   50.7386    9.3061 H         1 <0>         0.0408
     51 H21        18.8427   47.3026    6.0433 H         1 <0>         0.0575
     52 H22        17.5712   47.9740    7.1187 H         1 <0>         0.0575
     53 H23        18.0924   50.1745    5.8570 H         1 <0>         0.0521
     54 H24        19.2756   50.8330    7.6885 H         1 <0>         0.1491
     55 H25        16.7220   47.2826    5.0474 H         1 <0>         0.2095
@<TRIPOS>BOND
     1    1   11 1
     2    2   14 1
     3    3   29 1
     4    4    6 ar
     5    4   15 ar
     6    5    7 ar
     7    5   15 ar
     8    6   16 ar
     9    7   16 ar
    10    8    9 ar
    11    8   17 ar
    12    9   18 ar
    13   10   17 ar
    14   10   19 ar
    15   11   21 1
    16   12   20 1
    17   12   22 1
    18   13   21 1
    19   13   26 1
    20   14   20 2
    21   14   25 1
    22   15   23 1
    23   16   30 1
    24   17   29 1
    25   18   19 ar
    26   18   25 1
    27   19   20 1
    28   21   24 1
    29   22   24 am
    30   22   27 2
    31   23   25 am
    32   23   28 2
    33    1   31 1
    34    1   32 1
    35    1   33 1
    36    2   34 1
    37    2   35 1
    38    2   36 1
    39    3   37 1
    40    3   38 1
    41    3   39 1
    42    4   40 1
    43    5   41 1
    44    6   42 1
    45    7   43 1
    46    8   44 1
    47    9   45 1
    48   10   46 1
    49   11   47 1
    50   11   48 1
    51   12   49 1
    52   12   50 1
    53   13   51 1
    54   13   52 1
    55   21   53 1
    56   24   54 1
    57   26   55 1
