@<TRIPOS>MOLECULE
855_857_3HMM
   39    42     0     0     0
SMALL
USER_CHARGES

@<TRIPOS>ATOM
      1 C1         10.3020   63.9450    5.4270 C.3       1 <0>        -0.0223
      2 C2         17.0370   68.4860    9.5570 C.ar      1 <0>        -0.0610
      3 C3         16.0500   67.6780   10.1650 C.ar      1 <0>        -0.0597
      4 C4         13.3770   63.5740    3.2040 C.ar      1 <0>        -0.0580
      5 C5         17.2160   68.4350    8.1520 C.ar      1 <0>        -0.0493
      6 C6         15.2370   66.8210    9.3670 C.ar      1 <0>        -0.0356
      7 C7         12.0500   63.4210    3.6830 C.ar      1 <0>        -0.0406
      8 C8         14.3050   64.3710    3.9220 C.ar      1 <0>        -0.0326
      9 C9         18.5400   69.1230    3.2500 C.ar      1 <0>        -0.0224
     10 C10        16.2130   68.4070    2.9780 C.ar      1 <0>        -0.0224
     11 C11        18.5140   69.5380    1.9100 C.ar      1 <0>         0.0293
     12 C12        16.2750   68.8500    1.6470 C.ar      1 <0>         0.0293
     13 C13        11.6880   64.0670    4.8800 C.ar      1 <0>         0.0390
     14 C14        17.3780   68.5460    3.8100 C.ar      1 <0>         0.0353
     15 C15        16.4010   67.5660    7.3360 C.ar      1 <0>         0.0405
     16 C16        15.3920   66.7510    7.9650 C.ar      1 <0>         0.0767
     17 C17        13.8720   64.9950    5.1220 C.ar      1 <0>         0.1082
     18 C18        16.4740   67.4160    5.9310 C.ar      1 <0>         0.1346
     19 C19        14.7430   65.8590    5.9240 C.ar      1 <0>         0.1807
     20 N1         17.4040   69.4140    1.0990 N.ar      1 <0>        -0.2631
     21 N2         12.5740   64.8380    5.5860 N.ar      1 <0>        -0.2488
     22 N3         14.5800   65.9150    7.2720 N.ar      1 <0>        -0.2258
     23 N4         15.6620   66.5790    5.2540 N.ar      1 <0>        -0.2103
     24 N5         17.3950   68.1280    5.1530 N.pl3     1 <0>        -0.2988
     25 H1         10.2216   64.5274    6.3567 H         1 <0>         0.0292
     26 H2          9.5819   64.3300    4.6899 H         1 <0>         0.0292
     27 H3         10.0825   62.8877    5.6367 H         1 <0>         0.0292
     28 H4         17.6514   69.1386   10.1595 H         1 <0>         0.0618
     29 H5         15.9114   67.7097   11.2356 H         1 <0>         0.0618
     30 H6         13.6808   63.0829    2.2914 H         1 <0>         0.0619
     31 H7         17.9700   69.0526    7.6867 H         1 <0>         0.0625
     32 H8         14.4851   66.2111    9.8457 H         1 <0>         0.0639
     33 H9         11.3334   62.8219    3.1409 H         1 <0>         0.0635
     34 H10        15.3160   64.5001    3.5649 H         1 <0>         0.0640
     35 H11        19.4340   69.2427    3.8441 H         1 <0>         0.0651
     36 H12        15.3067   67.9697    3.3700 H         1 <0>         0.0651
     37 H13        19.4079   69.9768    1.4918 H         1 <0>         0.0830
     38 H14        15.3978   68.7433    1.0261 H         1 <0>         0.0830
     39 H15        18.2242   68.3896    5.6470 H         1 <0>         0.1536
@<TRIPOS>BOND
     1    1   13 1
     2    2    3 ar
     3    2    5 ar
     4    3    6 ar
     5    4    7 ar
     6    4    8 ar
     7    5   15 ar
     8    6   16 ar
     9    7   13 ar
    10    8   17 ar
    11    9   11 ar
    12    9   14 ar
    13   10   12 ar
    14   10   14 ar
    15   11   20 ar
    16   12   20 ar
    17   13   21 ar
    18   14   24 1
    19   15   16 ar
    20   15   18 ar
    21   16   22 ar
    22   17   19 1
    23   17   21 ar
    24   18   23 ar
    25   18   24 1
    26   19   22 ar
    27   19   23 ar
    28    1   25 1
    29    1   26 1
    30    1   27 1
    31    2   28 1
    32    3   29 1
    33    4   30 1
    34    5   31 1
    35    6   32 1
    36    7   33 1
    37    8   34 1
    38    9   35 1
    39   10   36 1
    40   11   37 1
    41   12   38 1
    42   24   39 1
