@<TRIPOS>MOLECULE
RA2_468_1B9V
   50    51     0     0     0
SMALL
USER_CHARGES

@<TRIPOS>ATOM
      1 C1         27.9490  -12.7780   62.9190 C.3       1 <0>        -0.0636
      2 C2         27.7650   -8.5320   64.3440 C.3       1 <0>        -0.0636
      3 C3         34.0310  -10.5980   65.8420 C.ar      1 <0>        -0.0510
      4 C4         33.8750   -9.4120   65.0710 C.ar      1 <0>        -0.0378
      5 C5         31.8140  -11.3380   65.1410 C.ar      1 <0>        -0.0302
      6 C6         31.7780   -5.8770   62.9210 C.3       1 <0>         0.0266
      7 C7         32.0960   -6.7030   61.6670 C.3       1 <0>        -0.0185
      8 C8         29.2160  -11.9210   62.8880 C.3       1 <0>        -0.0374
      9 C9         28.0610   -9.6490   63.3340 C.3       1 <0>        -0.0374
     10 C10        33.0290   -9.0750   61.2490 C.3       1 <0>         0.0681
     11 C11        34.5150   -7.2100   62.1450 C.3       1 <0>         0.0681
     12 C12        32.9940  -11.5710   65.8730 C.ar      1 <0>        -0.0008
     13 C13        32.6830   -9.1850   64.3260 C.ar      1 <0>         0.0579
     14 C14        31.6360  -10.1660   64.3690 C.ar      1 <0>         0.0497
     15 C15        31.7970   -6.9540   63.9980 C.2       1 <0>         0.2205
     16 C16        29.1840  -10.6300   63.7590 C.3       1 <0>         0.0202
     17 C17        33.1340  -12.8250   66.6530 C.2       1 <0>         0.0717
     18 C18        33.0660   -7.7960   62.1590 C.3       1 <0>         0.0885
     19 N1         30.4840   -9.9330   63.6410 N.pl3     1 <0>        -0.3395
     20 N2         32.5210   -8.0310   63.5490 N.am      1 <0>        -0.2591
     21 O1         31.7020   -9.4880   60.9290 O.3       1 <0>        -0.3928
     22 O2         35.1150   -7.1970   63.4350 O.3       1 <0>        -0.3928
     23 O3         32.0780  -13.6760   66.5930 O.co2     1 <0>        -0.5446
     24 O4         31.2300   -6.8410   65.0770 O.2       1 <0>        -0.2752
     25 O5         34.1150  -13.0700   67.2850 O.co2     1 <0>        -0.5446
     26 H1         28.0845  -13.6572   62.2720 H         1 <0>         0.0230
     27 H2         27.7550  -13.1082   63.9502 H         1 <0>         0.0230
     28 H3         27.0963  -12.1847   62.5572 H         1 <0>         0.0230
     29 H4         26.9592   -7.8910   63.9569 H         1 <0>         0.0230
     30 H5         27.4524   -8.9762   65.3005 H         1 <0>         0.0230
     31 H6         28.6713   -7.9282   64.4987 H         1 <0>         0.0230
     32 H7         34.9386  -10.7595   66.4047 H         1 <0>         0.0625
     33 H8         34.6672   -8.6782   65.0508 H         1 <0>         0.0637
     34 H9         31.0238  -12.0736   65.1697 H         1 <0>         0.0643
     35 H10        32.5249   -5.0904   63.1036 H         1 <0>         0.0359
     36 H11        30.8032   -5.3719   62.8525 H         1 <0>         0.0359
     37 H12        31.1833   -7.1450   61.2409 H         1 <0>         0.0292
     38 H13        32.5616   -6.0801   60.8890 H         1 <0>         0.0292
     39 H14        30.0442  -12.5450   63.2550 H         1 <0>         0.0280
     40 H15        29.3776  -11.6104   61.8452 H         1 <0>         0.0280
     41 H16        27.1386  -10.2333   63.2009 H         1 <0>         0.0280
     42 H17        28.3700   -9.1745   62.3909 H         1 <0>         0.0280
     43 H18        33.5572   -8.8485   60.3111 H         1 <0>         0.0579
     44 H19        33.5279   -9.8961   61.7846 H         1 <0>         0.0579
     45 H20        35.1341   -7.8304   61.4803 H         1 <0>         0.0579
     46 H21        34.4677   -6.1757   61.7736 H         1 <0>         0.0579
     47 H22        28.9857  -10.9419   64.7950 H         1 <0>         0.0497
     48 H23        30.2626   -8.9790   63.8433 H         1 <0>         0.1464
     49 H24        31.7347  -10.2621   60.3793 H         1 <0>         0.2095
     50 H25        35.9906   -6.8336   63.3738 H         1 <0>         0.2095
@<TRIPOS>BOND
     1    1    8 1
     2    2    9 1
     3    3    4 ar
     4    3   12 ar
     5    4   13 ar
     6    5   12 ar
     7    5   14 ar
     8    6    7 1
     9    6   15 1
    10    7   18 1
    11    8   16 1
    12    9   16 1
    13   10   18 1
    14   10   21 1
    15   11   18 1
    16   11   22 1
    17   12   17 1
    18   13   14 ar
    19   13   20 1
    20   14   19 1
    21   15   20 am
    22   15   24 2
    23   16   19 1
    24   17   23 1
    25   17   25 2
    26   18   20 1
    27    1   26 1
    28    1   27 1
    29    1   28 1
    30    2   29 1
    31    2   30 1
    32    2   31 1
    33    3   32 1
    34    4   33 1
    35    5   34 1
    36    6   35 1
    37    6   36 1
    38    7   37 1
    39    7   38 1
    40    8   39 1
    41    8   40 1
    42    9   41 1
    43    9   42 1
    44   10   43 1
    45   10   44 1
    46   11   45 1
    47   11   46 1
    48   16   47 1
    49   19   48 1
    50   21   49 1
    51   22   50 1
