@<TRIPOS>MOLECULE
G24_462_1Q4X
   51    53     0     0     0
SMALL
USER_CHARGES

@<TRIPOS>ATOM
      1 C1         14.8310   22.3710   45.6230 C.3       1 <0>        -0.0394
      2 C2         15.8330   25.2290   49.7750 C.3       1 <0>        -0.0394
      3 C3         10.4950   23.5450   41.1850 C.ar      1 <0>        -0.0617
      4 C4         11.8490   23.9260   41.2090 C.ar      1 <0>        -0.0615
      5 C5          9.5510   24.2760   41.9330 C.ar      1 <0>        -0.0615
      6 C6         12.2610   25.0350   41.9740 C.ar      1 <0>        -0.0583
      7 C7          9.9600   25.3880   42.7010 C.ar      1 <0>        -0.0583
      8 C8         12.6590   25.4070   47.5420 C.ar      1 <0>        -0.0558
      9 C9         11.3450   25.8400   47.2250 C.ar      1 <0>        -0.0314
     10 C10        15.3830   21.3550   47.8790 C.ar      1 <0>        -0.0285
     11 C11        15.8420   22.7100   49.8270 C.ar      1 <0>        -0.0285
     12 C12        13.3650   26.0290   45.2950 C.ar      1 <0>        -0.0523
     13 C13        11.7900   26.9620   43.5630 C.3       1 <0>         0.0000
     14 C14        15.1510   25.1080   46.8520 C.3       1 <0>        -0.0019
     15 C15        16.8550   20.4300   51.0060 C.3       1 <0>         0.0934
     16 C16        15.1950   22.5220   47.1100 C.ar      1 <0>        -0.0443
     17 C17        15.6600   23.8770   49.0750 C.ar      1 <0>        -0.0443
     18 C18        11.3220   25.7660   42.7210 C.ar      1 <0>        -0.0430
     19 C19        13.6730   25.5050   46.5700 C.ar      1 <0>        -0.0426
     20 C20        11.0620   26.3660   45.9430 C.ar      1 <0>         0.0761
     21 C21        15.7040   21.4410   49.2330 C.ar      1 <0>         0.0772
     22 C22        12.0580   26.4560   44.9790 C.ar      1 <0>        -0.0131
     23 C23        15.3310   23.8170   47.6910 C.ar      1 <0>        -0.0371
     24 C24        16.8960   19.1740   51.8690 C.2       1 <0>         0.0678
     25 O1          9.8160   26.8060   45.6220 O.3       1 <0>        -0.3596
     26 O2         15.8770   18.8900   52.5430 O.co2     1 <0>        -0.5474
     27 O3         17.9490   18.4970   51.8570 O.co2     1 <0>        -0.5474
     28 O4         15.8690   20.2840   49.9540 O.3       1 <0>        -0.3389
     29 H1         13.7370   22.3326   45.5148 H         1 <0>         0.0278
     30 H2         15.2250   23.2301   45.0602 H         1 <0>         0.0278
     31 H3         15.2709   21.4423   45.2305 H         1 <0>         0.0278
     32 H4         16.8825   25.5498   49.6998 H         1 <0>         0.0278
     33 H5         15.1858   25.9766   49.2932 H         1 <0>         0.0278
     34 H6         15.5547   25.1313   50.8347 H         1 <0>         0.0278
     35 H7         10.1806   22.6961   40.5960 H         1 <0>         0.0618
     36 H8         12.5755   23.3662   40.6387 H         1 <0>         0.0618
     37 H9          8.5111   23.9848   41.9189 H         1 <0>         0.0618
     38 H10        13.3015   25.3241   41.9863 H         1 <0>         0.0620
     39 H11         9.2342   25.9483   43.2717 H         1 <0>         0.0620
     40 H12        12.8792   25.0058   48.5203 H         1 <0>         0.0621
     41 H13        10.5604   25.7677   47.9636 H         1 <0>         0.0643
     42 H14        15.2773   20.3856   47.4148 H         1 <0>         0.0646
     43 H15        16.0912   22.7842   50.8752 H         1 <0>         0.0646
     44 H16        14.1429   26.1040   44.5496 H         1 <0>         0.0624
     45 H17        12.7087   27.3889   43.1345 H         1 <0>         0.0362
     46 H18        11.0115   27.7389   43.5808 H         1 <0>         0.0362
     47 H19        15.6454   24.9485   45.8824 H         1 <0>         0.0362
     48 H20        15.6197   25.9349   47.4057 H         1 <0>         0.0362
     49 H21        16.5886   21.2925   51.6346 H         1 <0>         0.0627
     50 H22        17.8450   20.5913   50.5544 H         1 <0>         0.0627
     51 H23         9.8125   27.1226   44.7263 H         1 <0>         0.2173
@<TRIPOS>BOND
     1    1   16 1
     2    2   17 1
     3    3    4 ar
     4    3    5 ar
     5    4    6 ar
     6    5    7 ar
     7    6   18 ar
     8    7   18 ar
     9    8    9 ar
    10    8   19 ar
    11    9   20 ar
    12   10   16 ar
    13   10   21 ar
    14   11   17 ar
    15   11   21 ar
    16   12   19 ar
    17   12   22 ar
    18   13   18 1
    19   13   22 1
    20   14   19 1
    21   14   23 1
    22   15   24 1
    23   15   28 1
    24   16   23 ar
    25   17   23 ar
    26   20   22 ar
    27   20   25 1
    28   21   28 1
    29   24   26 1
    30   24   27 2
    31    1   29 1
    32    1   30 1
    33    1   31 1
    34    2   32 1
    35    2   33 1
    36    2   34 1
    37    3   35 1
    38    4   36 1
    39    5   37 1
    40    6   38 1
    41    7   39 1
    42    8   40 1
    43    9   41 1
    44   10   42 1
    45   11   43 1
    46   12   44 1
    47   13   45 1
    48   13   46 1
    49   14   47 1
    50   14   48 1
    51   15   49 1
    52   15   50 1
    53   25   51 1
