@<TRIPOS>MOLECULE
HYZ_1_2RGP
   60    64     0     0     0
SMALL
USER_CHARGES

@<TRIPOS>ATOM
      1 C1         16.0310   40.2220   97.6320 C.ar      1 <0>        -0.0587
      2 C2         16.8780   39.0760   97.6860 C.ar      1 <0>        -0.0568
      3 C3         14.7180   40.1160   97.0990 C.ar      1 <0>        -0.0264
      4 C4         17.3900   35.7120   92.7350 C.ar      1 <0>        -0.0387
      5 C5         17.5140   36.1290   94.0760 C.ar      1 <0>        -0.0365
      6 C6         15.0830   37.7300   96.6750 C.ar      1 <0>        -0.0217
      7 C7         15.9650   33.8170   93.4030 C.ar      1 <0>        -0.0300
      8 C8         15.5850   33.7600   95.9940 C.2       1 <0>         0.0548
      9 C9         13.0410   34.3520   90.2010 C.ar      1 <0>         0.1201
     10 C10        20.5540   31.1900   85.6350 C.3       1 <0>        -0.0507
     11 C11        19.5090   31.9970   84.8580 C.3       1 <0>        -0.0388
     12 C12        20.5730   31.5960   87.1120 C.3       1 <0>        -0.0388
     13 C13        18.1270   31.9340   85.5370 C.3       1 <0>         0.0137
     14 C14        19.1670   31.5240   87.7400 C.3       1 <0>         0.0137
     15 C15        16.6440   33.3950   88.1860 C.3       1 <0>         0.0425
     16 C16        17.3230   36.5580   97.2600 C.3       1 <0>         0.0601
     17 C17        16.4190   37.8080   97.2090 C.ar      1 <0>        -0.0255
     18 C18        16.6250   34.5740   92.3820 C.ar      1 <0>         0.0331
     19 C19        14.2560   38.8690   96.6250 C.ar      1 <0>         0.1237
     20 C20        16.8400   35.3580   95.0700 C.ar      1 <0>         0.0606
     21 C21        16.0750   34.2210   94.7560 C.ar      1 <0>         0.0191
     22 C22        15.3910   33.7190   88.8960 C.ar      1 <0>         0.0472
     23 C23        14.1240   33.6450   88.2640 C.ar      1 <0>         0.1256
     24 C24        15.3910   34.1200   90.2310 C.ar      1 <0>         0.1324
     25 N1         13.9670   33.2580   86.9490 N.pl3     1 <0>        -0.3428
     26 N2         15.9710   34.5190   97.0190 N.2       1 <0>        -0.1868
     27 N3         12.9540   33.9630   88.9110 N.ar      1 <0>        -0.2207
     28 N4         14.2120   34.4440   90.8920 N.ar      1 <0>        -0.2202
     29 N5         16.9000   32.2900   87.5590 N.3       1 <0>        -0.2494
     30 N6         16.5250   34.2480   91.0370 N.pl3     1 <0>        -0.2990
     31 N7         16.7310   35.4930   96.4340 N.pl3     1 <0>        -0.2195
     32 N8         18.1460   32.3440   86.9840 N.3       1 <0>        -0.2426
     33 F1         13.0110   38.7560   96.1180 F         1 <0>        -0.2055
     34 H1         16.3885   41.1734   97.9973 H         1 <0>         0.0619
     35 H2         17.8752   39.1663   98.0908 H         1 <0>         0.0621
     36 H3         14.0772   40.9844   97.0568 H         1 <0>         0.0646
     37 H4         17.8898   36.2733   91.9594 H         1 <0>         0.0637
     38 H5         18.0968   36.9988   94.3410 H         1 <0>         0.0637
     39 H6         14.7106   36.7850   96.3080 H         1 <0>         0.0649
     40 H7         15.3866   32.9429   93.1426 H         1 <0>         0.0643
     41 H8         14.9624   32.8840   96.1009 H         1 <0>         0.0852
     42 H9         12.1267   34.6058   90.7168 H         1 <0>         0.1048
     43 H10        20.3074   30.1206   85.5612 H         1 <0>         0.0266
     44 H11        21.5467   31.3774   85.1998 H         1 <0>         0.0266
     45 H12        19.8340   33.0469   84.8125 H         1 <0>         0.0278
     46 H13        19.4243   31.5825   83.8426 H         1 <0>         0.0278
     47 H14        21.2396   30.9123   87.6581 H         1 <0>         0.0278
     48 H15        20.9426   32.6291   87.1899 H         1 <0>         0.0278
     49 H16        17.4503   32.6135   84.9982 H         1 <0>         0.0441
     50 H17        17.7655   30.8966   85.4805 H         1 <0>         0.0441
     51 H18        18.8393   30.4740   87.7378 H         1 <0>         0.0441
     52 H19        19.2266   31.9073   88.7693 H         1 <0>         0.0441
     53 H20        16.7263   34.1720   87.4118 H         1 <0>         0.0489
     54 H21        17.4196   33.4519   88.9639 H         1 <0>         0.0489
     55 H22        18.3212   36.8107   96.8732 H         1 <0>         0.0534
     56 H23        17.4106   36.2103   98.2999 H         1 <0>         0.0534
     57 H24        12.9970   33.2831   86.7072 H         1 <0>         0.1437
     58 H25        14.4747   33.8822   86.3551 H         1 <0>         0.1437
     59 H26        16.8705   31.5298   88.2080 H         1 <0>         0.1411
     60 H27        17.3957   34.0793   90.5750 H         1 <0>         0.1536
@<TRIPOS>BOND
     1    1    2 ar
     2    1    3 ar
     3    2   17 ar
     4    3   19 ar
     5    4    5 ar
     6    4   18 ar
     7    5   20 ar
     8    6   17 ar
     9    6   19 ar
    10    7   18 ar
    11    7   21 ar
    12    8   21 1
    13    8   26 2
    14    9   27 ar
    15    9   28 ar
    16   10   11 1
    17   10   12 1
    18   11   13 1
    19   12   14 1
    20   13   32 1
    21   14   32 1
    22   15   22 1
    23   15   29 1
    24   16   17 1
    25   16   31 1
    26   18   30 1
    27   19   33 1
    28   20   21 ar
    29   20   31 1
    30   22   23 ar
    31   22   24 ar
    32   23   25 1
    33   23   27 ar
    34   24   28 ar
    35   24   30 1
    36   26   31 1
    37   29   32 1
    38    1   34 1
    39    2   35 1
    40    3   36 1
    41    4   37 1
    42    5   38 1
    43    6   39 1
    44    7   40 1
    45    8   41 1
    46    9   42 1
    47   10   43 1
    48   10   44 1
    49   11   45 1
    50   11   46 1
    51   12   47 1
    52   12   48 1
    53   13   49 1
    54   13   50 1
    55   14   51 1
    56   14   52 1
    57   15   53 1
    58   15   54 1
    59   16   55 1
    60   16   56 1
    61   25   57 1
    62   25   58 1
    63   29   59 1
    64   30   60 1
