@<TRIPOS>MOLECULE
BMI_301_2OJ9
   49    53     0     0     0
SMALL
USER_CHARGES

@<TRIPOS>ATOM
      1 C1          5.7950   -7.0590   23.8340 C.3       1 <0>        -0.0378
      2 C2          8.4580   -4.0300   24.2910 C.ar      1 <0>        -0.0586
      3 C3          9.0360   -4.9650   23.4230 C.ar      1 <0>        -0.0436
      4 C4          7.5420   -3.1670   23.7480 C.ar      1 <0>        -0.0388
      5 C5          3.9510   -2.1660   19.7420 C.2       1 <0>        -0.0261
      6 C6          3.2890   -2.2380   18.5760 C.2       1 <0>        -0.0017
      7 C7          8.6570   -5.0060   22.0630 C.ar      1 <0>         0.0279
      8 C8          6.3520  -13.3410   21.9890 C.2       1 <0>         0.0434
      9 C9          5.9250  -12.1070   22.5390 C.2       1 <0>         0.0209
     10 C10         5.7990   -9.1700   22.6200 C.ar      1 <0>        -0.0352
     11 C11         5.0230   -9.2590   20.4490 C.ar      1 <0>        -0.0127
     12 C12         6.3110  -11.8600   20.4050 C.2       1 <0>         0.0921
     13 C13         6.1460   -2.3190   21.8520 C.3       1 <0>         0.0515
     14 C14         5.5310   -7.8880   22.6180 C.ar      1 <0>        -0.0254
     15 C15         7.2110   -3.2340   22.4120 C.ar      1 <0>         0.0582
     16 C16         4.2240   -3.3630   20.4270 C.2       1 <0>         0.0442
     17 C17         5.5650   -9.8540   21.5280 C.ar      1 <0>         0.0414
     18 C18         4.7380   -7.8890   20.5150 C.ar      1 <0>         0.0891
     19 C19         3.8190   -4.5490   19.7500 C.2       1 <0>         0.0977
     20 C20         5.0030   -7.2570   21.5870 C.ar      1 <0>         0.0612
     21 C21         3.1460   -4.5250   18.4410 C.2       1 <0>         0.2530
     22 C22         4.1620   -5.8220   20.3210 C.2       1 <0>         0.1377
     23 N1          2.8980   -3.3310   17.9320 N.am      1 <0>        -0.2878
     24 N2          4.6790   -5.9430   21.4200 N.pl3     1 <0>        -0.2969
     25 N3          6.6000  -13.1510   20.6500 N.2       1 <0>        -0.2462
     26 N4          7.7620   -4.1500   21.5760 N.ar      1 <0>        -0.2583
     27 N5          4.2050   -6.9530   19.6740 N.2       1 <0>        -0.2297
     28 N6          4.9310   -3.2670   21.6820 N.pl3     1 <0>        -0.3375
     29 N7          5.9050  -11.2140   21.5020 N.pl3     1 <0>        -0.2652
     30 O1          2.7560   -5.6360   17.8830 O.2       1 <0>        -0.2697
     31 H1          6.8135   -6.6465   23.7832 H         1 <0>         0.0278
     32 H2          5.0678   -6.2350   23.8808 H         1 <0>         0.0278
     33 H3          5.6978   -7.6855   24.7329 H         1 <0>         0.0278
     34 H4          8.7214   -3.9909   25.3377 H         1 <0>         0.0619
     35 H5          9.7755   -5.6583   23.7956 H         1 <0>         0.0633
     36 H6          7.0730   -2.4240   24.3761 H         1 <0>         0.0636
     37 H7          4.2654   -1.2138   20.1430 H         1 <0>         0.0649
     38 H8          3.0461   -1.2960   18.1070 H         1 <0>         0.0783
     39 H9          9.0999   -5.7426   21.4090 H         1 <0>         0.0829
     40 H10         6.4634  -14.2701   22.5282 H         1 <0>         0.0843
     41 H11         5.6672  -11.9106   23.5692 H         1 <0>         0.0803
     42 H12         6.2024   -9.6505   23.4991 H         1 <0>         0.0639
     43 H13         4.8128   -9.8246   19.5533 H         1 <0>         0.0658
     44 H14         6.3973  -11.3984   19.4324 H         1 <0>         0.1006
     45 H15         5.9216   -1.4880   22.5369 H         1 <0>         0.0526
     46 H16         6.4533   -1.8748   20.8938 H         1 <0>         0.0526
     47 H17         2.4149   -3.2506   17.0601 H         1 <0>         0.1546
     48 H18         4.8369   -5.2090   22.0805 H         1 <0>         0.1536
     49 H19         5.2770   -4.1865   21.8687 H         1 <0>         0.1465
@<TRIPOS>BOND
     1    1   14 1
     2    2    3 ar
     3    2    4 ar
     4    3    7 ar
     5    4   15 ar
     6    5    6 2
     7    5   16 1
     8    6   23 1
     9    7   26 ar
    10    8    9 2
    11    8   25 1
    12    9   29 1
    13   10   14 ar
    14   10   17 ar
    15   11   17 ar
    16   11   18 ar
    17   12   25 2
    18   12   29 1
    19   13   15 1
    20   13   28 1
    21   14   20 ar
    22   15   26 ar
    23   16   19 2
    24   16   28 1
    25   17   29 1
    26   18   20 ar
    27   18   27 1
    28   19   21 1
    29   19   22 1
    30   20   24 1
    31   21   23 am
    32   21   30 2
    33   22   24 1
    34   22   27 2
    35    1   31 1
    36    1   32 1
    37    1   33 1
    38    2   34 1
    39    3   35 1
    40    4   36 1
    41    5   37 1
    42    6   38 1
    43    7   39 1
    44    8   40 1
    45    9   41 1
    46   10   42 1
    47   11   43 1
    48   12   44 1
    49   13   45 1
    50   13   46 1
    51   23   47 1
    52   24   48 1
    53   28   49 1
