@<TRIPOS>MOLECULE
KRJ_923_3KRJ
   52    55     0     0     0
SMALL
USER_CHARGES

@<TRIPOS>ATOM
      1 C1          7.1030   31.0480   12.1630 C.ar      1 <0>        -0.0525
      2 C2          7.5780   30.0390   11.3340 C.ar      1 <0>        -0.0393
      3 C3          6.1930   32.2330   10.2430 C.ar      1 <0>        -0.0452
      4 C4          9.6850   25.1970    7.5110 C.2       1 <0>         0.0312
      5 C5          6.6530   31.0070    4.9870 C.3       1 <0>        -0.0493
      6 C6          6.9740   32.3660    5.6180 C.3       1 <0>        -0.0488
      7 C7          5.5000   30.3350    5.7470 C.3       1 <0>        -0.0342
      8 C8          7.3450   32.2360    7.1110 C.3       1 <0>        -0.0274
      9 C9          4.4620   33.0150   13.1030 C.3       1 <0>         0.0131
     10 C10         3.7380   34.3240   13.4510 C.3       1 <0>        -0.0293
     11 C11         5.5460   35.7390   13.1880 C.3       1 <0>        -0.0142
     12 C12         5.7060   30.3750    7.2560 C.2       1 <0>        -0.0802
     13 C13         6.4540   34.6400   12.5900 C.2       1 <0>        -0.0356
     14 C14         8.1750   25.1810    5.4830 C.1       1 <0>         0.1204
     15 C15         6.4090   32.1570   11.6490 C.ar      1 <0>        -0.0211
     16 C16         7.3740   30.0960    9.9440 C.ar      1 <0>         0.0412
     17 C17         6.6610   31.1950    9.3810 C.ar      1 <0>        -0.0004
     18 C18         8.6640   25.6850    6.7230 C.2       1 <0>         0.1560
     19 C19         8.8160   26.9840    8.4530 C.2       1 <0>         0.1869
     20 C20         6.4460   31.2990    7.9140 C.2       1 <0>        -0.0423
     21 C21         5.9640   33.1700   12.7240 C.2       1 <0>        -0.0341
     22 C22         8.6330   28.0060    9.5170 C.2       1 <0>         0.2814
     23 N1          7.7680   24.7790    4.4760 N.1       1 <0>        -0.1892
     24 N2          9.7520   26.0480    8.6010 N.pl3     1 <0>        -0.2989
     25 N3          8.1150   26.8190    7.3340 N.2       1 <0>        -0.2152
     26 N4          4.6730   35.1550   14.1950 N.4       1 <0>         0.2301
     27 N5          7.8330   29.0140    9.1550 N.am      1 <0>        -0.2786
     28 O1          9.2090   27.8790   10.6010 O.2       1 <0>        -0.2667
     29 H1          7.2711   30.9784   13.2276 H         1 <0>         0.0624
     30 H2          8.1096   29.2020   11.7620 H         1 <0>         0.0636
     31 H3          5.6715   33.0818    9.8259 H         1 <0>         0.0630
     32 H4         10.3028   24.3324    7.3183 H         1 <0>         0.0810
     33 H5          6.3597   31.1538    3.9370 H         1 <0>         0.0268
     34 H6          7.5441   30.3639    5.0355 H         1 <0>         0.0268
     35 H7          7.8251   32.8108    5.0815 H         1 <0>         0.0268
     36 H8          6.0883   33.0125    5.5306 H         1 <0>         0.0268
     37 H9          4.5661   30.8641    5.5065 H         1 <0>         0.0307
     38 H10         5.4365   29.2837    5.4296 H         1 <0>         0.0307
     39 H11         8.3720   31.8462    7.1686 H         1 <0>         0.0313
     40 H12         7.2746   33.2367    7.5623 H         1 <0>         0.0313
     41 H13         4.4070   32.3596   13.9847 H         1 <0>         0.0365
     42 H14         3.9455   32.5679   12.2408 H         1 <0>         0.0365
     43 H15         3.4223   34.8386   12.5315 H         1 <0>         0.0817
     44 H16         2.8481   34.1139   14.0625 H         1 <0>         0.0817
     45 H17         6.1700   36.5174   13.6513 H         1 <0>         0.0861
     46 H18         4.9359   36.1849   12.3887 H         1 <0>         0.0861
     47 H19         5.2255   29.6084    7.8458 H         1 <0>         0.0575
     48 H20         7.3862   34.8820   12.1014 H         1 <0>         0.0628
     49 H21        10.3916   25.9730    9.3660 H         1 <0>         0.1532
     50 H22         4.1906   35.8664   14.7060 H         1 <0>         0.2017
     51 H23         5.1965   34.6076   14.8480 H         1 <0>         0.2017
     52 H24         7.5187   29.0022    8.2057 H         1 <0>         0.1552
@<TRIPOS>BOND
     1    1    2 ar
     2    1   15 ar
     3    2   16 ar
     4    3   15 ar
     5    3   17 ar
     6    4   18 2
     7    4   24 1
     8    5    6 1
     9    5    7 1
    10    6    8 1
    11    7   12 1
    12    8   20 1
    13    9   10 1
    14    9   21 1
    15   10   26 1
    16   11   13 1
    17   11   26 1
    18   12   20 2
    19   13   21 2
    20   14   18 1
    21   14   23 3
    22   15   21 1
    23   16   17 ar
    24   16   27 1
    25   17   20 1
    26   18   25 1
    27   19   22 1
    28   19   24 1
    29   19   25 2
    30   22   27 am
    31   22   28 2
    32    1   29 1
    33    2   30 1
    34    3   31 1
    35    4   32 1
    36    5   33 1
    37    5   34 1
    38    6   35 1
    39    6   36 1
    40    7   37 1
    41    7   38 1
    42    8   39 1
    43    8   40 1
    44    9   41 1
    45    9   42 1
    46   10   43 1
    47   10   44 1
    48   11   45 1
    49   11   46 1
    50   12   47 1
    51   13   48 1
    52   24   49 1
    53   26   50 1
    54   26   51 1
    55   27   52 1
