@<TRIPOS>MOLECULE
SM5_1_3D4Q
   52    56     0     0     0
SMALL
USER_CHARGES

@<TRIPOS>ATOM
      1 C1         83.5760   10.4790   -8.9100 C.ar      1 <0>        -0.0343
      2 C2         81.8330    9.3240   -7.5860 C.ar      1 <0>        -0.0343
      3 C3         82.5030   11.5550   -9.1340 C.ar      1 <0>         0.0282
      4 C4         80.9140   10.3890   -7.8650 C.ar      1 <0>         0.0282
      5 C5         85.1430    6.4040   -7.3060 C.2       1 <0>         0.0253
      6 C6         87.7740    5.4600   -8.0120 C.3       1 <0>         0.0081
      7 C7         88.4150    7.7280   -8.2820 C.3       1 <0>         0.0081
      8 C8         89.2320    4.9460   -7.7250 C.3       1 <0>        -0.0319
      9 C9         89.8700    7.4050   -7.8600 C.3       1 <0>        -0.0319
     10 C10        78.7450    5.3560   -8.0390 C.2       1 <0>        -0.0710
     11 C11        78.1780    4.1230   -7.0480 C.2       1 <0>        -0.0415
     12 C12        82.7000    5.5100   -6.1410 C.2       1 <0>        -0.0539
     13 C13        81.6530    4.6490   -5.7640 C.2       1 <0>        -0.0553
     14 C14        81.1940    6.4880   -7.9520 C.2       1 <0>        -0.0650
     15 C15        83.2120    9.4050   -8.1440 C.ar      1 <0>         0.0054
     16 C16        83.7340    7.1640   -7.4610 C.2       1 <0>         0.0248
     17 C17        84.0570    8.4330   -7.8780 C.2       1 <0>         0.0982
     18 C18        87.5860    6.9220   -7.5930 C.3       1 <0>         0.0553
     19 C19        80.1590    5.5860   -7.5350 C.3       1 <0>         0.0233
     20 C20        82.5440    6.4220   -7.1840 C.2       1 <0>        -0.0176
     21 C21        80.4380    4.6840   -6.4410 C.2       1 <0>        -0.0138
     22 C22        79.3620    3.8420   -6.1140 C.2       1 <0>         0.0560
     23 N1         81.2270   11.4930   -8.6190 N.ar      1 <0>        -0.2632
     24 N2         85.7210    8.5800   -8.0120 N.2       1 <0>        -0.1790
     25 N3         90.2100    5.9550   -8.2090 N.4       1 <0>         0.2271
     26 N4         79.4410    3.0460   -5.1830 N.pl3     1 <0>        -0.2287
     27 N5         86.1670    7.2950   -7.6370 N.pl3     1 <0>        -0.2270
     28 O1         78.2300    2.3440   -5.0280 O.3       1 <0>        -0.2974
     29 H1         84.5653   10.5655   -9.3345 H         1 <0>         0.0639
     30 H2         81.5314    8.4800   -6.9834 H         1 <0>         0.0639
     31 H3         82.7656   12.4144   -9.7331 H         1 <0>         0.0830
     32 H4         79.9162   10.3185   -7.4578 H         1 <0>         0.0830
     33 H5         85.2753    5.3774   -6.9978 H         1 <0>         0.0806
     34 H6         87.5782    5.3761   -9.0912 H         1 <0>         0.0336
     35 H7         87.0648    4.8385   -7.4457 H         1 <0>         0.0336
     36 H8         88.1856    8.7801   -8.0573 H         1 <0>         0.0336
     37 H9         88.2920    7.5558   -9.3614 H         1 <0>         0.0336
     38 H10        89.3631    4.7952   -6.6433 H         1 <0>         0.0814
     39 H11        89.3963    3.9929   -8.2489 H         1 <0>         0.0814
     40 H12        90.5595    8.0772   -8.3917 H         1 <0>         0.0814
     41 H13        89.9736    7.5506   -6.7746 H         1 <0>         0.0814
     42 H14        78.2285    5.8626   -8.8408 H         1 <0>         0.0582
     43 H15        77.2107    3.6429   -7.0647 H         1 <0>         0.0634
     44 H16        83.6411    5.4636   -5.6132 H         1 <0>         0.0624
     45 H17        81.7930    3.9581   -4.9458 H         1 <0>         0.0621
     46 H18        81.0417    7.1830   -8.7646 H         1 <0>         0.0587
     47 H19        87.8803    7.0524   -6.5412 H         1 <0>         0.0524
     48 H20        80.2507    6.3946   -8.2751 H         1 <0>         0.0435
     49 H21        91.0950    5.7428   -7.7947 H         1 <0>         0.2013
     50 H22        90.2507    5.8844   -9.2057 H         1 <0>         0.2013
     51 H23        80.1755    2.3940   -5.3712 H         1 <0>         0.1792
     52 H24        78.3079    1.7332   -4.3046 H         1 <0>         0.2413
@<TRIPOS>BOND
     1    1    3 ar
     2    1   15 ar
     3    2    4 ar
     4    2   15 ar
     5    3   23 ar
     6    4   23 ar
     7    5   16 2
     8    5   27 1
     9    6    8 1
    10    6   18 1
    11    7    9 1
    12    7   18 1
    13    8   25 1
    14    9   25 1
    15   10   11 2
    16   10   19 1
    17   11   22 1
    18   12   13 2
    19   12   20 1
    20   13   21 1
    21   14   19 1
    22   14   20 2
    23   15   17 1
    24   16   17 1
    25   16   20 1
    26   17   24 2
    27   18   27 1
    28   19   21 1
    29   21   22 2
    30   22   26 1
    31   24   27 1
    32   26   28 1
    33    1   29 1
    34    2   30 1
    35    3   31 1
    36    4   32 1
    37    5   33 1
    38    6   34 1
    39    6   35 1
    40    7   36 1
    41    7   37 1
    42    8   38 1
    43    8   39 1
    44    9   40 1
    45    9   41 1
    46   10   42 1
    47   11   43 1
    48   12   44 1
    49   13   45 1
    50   14   46 1
    51   18   47 1
    52   19   48 1
    53   25   49 1
    54   25   50 1
    55   26   51 1
    56   28   52 1
