@<TRIPOS>MOLECULE
735_469_2P54
   53    55     0     0     0
SMALL
USER_CHARGES

@<TRIPOS>ATOM
      1 C1         11.3340   38.5270   30.6240 C.3       1 <0>        -0.0211
      2 C2         10.7040   42.9690   21.6290 C.3       1 <0>        -0.0303
      3 C3         12.4890   41.7080   22.9210 C.3       1 <0>        -0.0303
      4 C4         10.4630   39.2930   26.1770 C.ar      1 <0>        -0.0546
      5 C5         10.6780   37.7500   24.2950 C.ar      1 <0>        -0.0546
      6 C6         17.4610   38.7740   31.4610 C.ar      1 <0>        -0.0515
      7 C7         15.9470   40.1280   32.8040 C.ar      1 <0>        -0.0515
      8 C8         18.5280   39.1460   32.2820 C.ar      1 <0>        -0.0495
      9 C9         17.0260   40.4990   33.6260 C.ar      1 <0>        -0.0495
     10 C10        10.2460   40.3530   25.2760 C.ar      1 <0>        -0.0313
     11 C11        10.4600   38.8120   23.3960 C.ar      1 <0>        -0.0313
     12 C12        10.9270   36.7910   26.5800 C.3       1 <0>         0.0372
     13 C13        12.7960   38.3530   30.2760 C.2       1 <0>         0.0582
     14 C14        10.6850   37.9790   25.6820 C.ar      1 <0>        -0.0302
     15 C15        16.1600   39.2560   31.7170 C.ar      1 <0>         0.0072
     16 C16        18.3200   40.0100   33.3770 C.ar      1 <0>         0.0548
     17 C17        10.2480   40.1170   23.8920 C.ar      1 <0>         0.0774
     18 C18        13.4500   37.9350   29.1690 C.2       1 <0>         0.0967
     19 C19        15.0540   38.8430   30.8690 C.2       1 <0>         0.1092
     20 C20        12.8710   37.3880   27.9350 C.2       1 <0>         0.2528
     21 C21        11.2580   40.6940   20.9760 C.2       1 <0>         0.0734
     22 C22        11.1340   41.6070   22.1970 C.3       1 <0>         0.1093
     23 C23        19.4870   40.3810   34.2720 C.3       1 <0>         0.4174
     24 N1         13.7580   38.9120   31.2150 N.2       1 <0>        -0.2435
     25 N2         11.5570   37.1190   27.8330 N.am      1 <0>        -0.3068
     26 O1         12.3430   40.2150   20.6370 O.co2     1 <0>        -0.5469
     27 O2         13.6940   37.2080   27.0350 O.2       1 <0>        -0.2696
     28 O3         10.2410   40.4190   20.3400 O.co2     1 <0>        -0.5469
     29 O4         10.0410   41.1880   23.0170 O.3       1 <0>        -0.3330
     30 F1         19.2790   41.5360   34.8480 F         1 <0>        -0.1659
     31 F2         20.6060   40.3670   33.5900 F         1 <0>        -0.1659
     32 F3         19.5540   39.4490   35.1910 F         1 <0>        -0.1659
     33 S1         15.1700   38.1210   29.2670 S.3       1 <0>        -0.0623
     34 H1         11.2453   39.0735   31.5745 H         1 <0>         0.0293
     35 H2         10.8325   39.0950   29.8265 H         1 <0>         0.0293
     36 H3         10.8609   37.5390   30.7238 H         1 <0>         0.0293
     37 H4          9.7350   42.8648   21.1190 H         1 <0>         0.0261
     38 H5         10.6099   43.6952   22.4498 H         1 <0>         0.0261
     39 H6         11.4596   43.3220   20.9117 H         1 <0>         0.0261
     40 H7         12.7691   40.7201   23.3154 H         1 <0>         0.0261
     41 H8         13.2579   42.0516   22.2134 H         1 <0>         0.0261
     42 H9         12.4082   42.4248   23.7515 H         1 <0>         0.0261
     43 H10        10.4608   39.4777   27.2411 H         1 <0>         0.0622
     44 H11        10.8411   36.7520   23.9159 H         1 <0>         0.0622
     45 H12        17.6331   38.1129   30.6245 H         1 <0>         0.0624
     46 H13        14.9572   40.5103   33.0051 H         1 <0>         0.0624
     47 H14        19.5192   38.7694   32.0768 H         1 <0>         0.0623
     48 H15        16.8585   41.1671   34.4579 H         1 <0>         0.0623
     49 H16        10.0773   41.3516   25.6510 H         1 <0>         0.0643
     50 H17        10.4550   38.6290   22.3316 H         1 <0>         0.0643
     51 H18         9.9534   36.3290   26.8007 H         1 <0>         0.0512
     52 H19        11.5830   36.0891   26.0442 H         1 <0>         0.0512
     53 H20        10.9953   37.1479   28.6598 H         1 <0>         0.1494
@<TRIPOS>BOND
     1    1   13 1
     2    2   22 1
     3    3   22 1
     4    4   10 ar
     5    4   14 ar
     6    5   11 ar
     7    5   14 ar
     8    6    8 ar
     9    6   15 ar
    10    7    9 ar
    11    7   15 ar
    12    8   16 ar
    13    9   16 ar
    14   10   17 ar
    15   11   17 ar
    16   12   14 1
    17   12   25 1
    18   13   18 2
    19   13   24 1
    20   15   19 1
    21   16   23 1
    22   17   29 1
    23   18   20 1
    24   18   33 1
    25   19   24 2
    26   19   33 1
    27   20   25 am
    28   20   27 2
    29   21   22 1
    30   21   26 1
    31   21   28 2
    32   22   29 1
    33   23   30 1
    34   23   31 1
    35   23   32 1
    36    1   34 1
    37    1   35 1
    38    1   36 1
    39    2   37 1
    40    2   38 1
    41    2   39 1
    42    3   40 1
    43    3   41 1
    44    3   42 1
    45    4   43 1
    46    5   44 1
    47    6   45 1
    48    7   46 1
    49    8   47 1
    50    9   48 1
    51   10   49 1
    52   11   50 1
    53   12   51 1
    54   12   52 1
    55   25   53 1
