@<TRIPOS>MOLECULE
AS4_201_2AA2
   54    58     0     0     0
SMALL
USER_CHARGES

@<TRIPOS>ATOM
      1 C1         19.0190   69.4610   20.2520 C.3       1 <0>        -0.0555
      2 C2         21.1680   74.6940   20.7900 C.3       1 <0>        -0.0486
      3 C3         20.7130   75.7070   21.8680 C.3       1 <0>        -0.0425
      4 C4         20.9910   72.2890   18.6040 C.3       1 <0>        -0.0459
      5 C5         21.1140   70.8000   18.1620 C.3       1 <0>        -0.0305
      6 C6         17.1160   68.6840   17.8750 C.3       1 <0>         0.0107
      7 C7         17.2540   70.1010   18.4590 C.3       1 <0>        -0.0366
      8 C8         17.4550   73.7690   20.9300 C.3       1 <0>        -0.0150
      9 C9         19.4650   69.3550   16.8630 C.2       1 <0>        -0.0194
     10 C10        16.9640   76.3730   23.1630 C.3       1 <0>         0.1025
     11 C11        20.0500   72.5000   19.8510 C.3       1 <0>        -0.0313
     12 C12        19.8700   73.9850   20.2970 C.3       1 <0>        -0.0268
     13 C13        19.1660   75.5790   21.9050 C.3       1 <0>         0.0304
     14 C14        17.6310   72.2430   20.7480 C.3       1 <0>         0.0662
     15 C15        18.6260   71.9600   19.5140 C.3       1 <0>        -0.0024
     16 C16        18.9890   72.9270   22.5790 C.3       1 <0>         0.1631
     17 C17        19.7270   70.1490   17.9400 C.2       1 <0>        -0.0600
     18 C18        18.0970   68.6670   16.6740 C.2       1 <0>         0.1561
     19 C19        18.4750   76.1360   23.2040 C.2       1 <0>         0.1622
     20 C20        18.6700   70.4240   19.0570 C.3       1 <0>        -0.0049
     21 C21        18.8690   74.0950   21.5270 C.3       1 <0>         0.0365
     22 O1         16.4710   76.4530   24.5030 O.3       1 <0>        -0.3875
     23 O2         18.3890   73.2210   23.8400 O.3       1 <0>        -0.3665
     24 O3         17.7730   68.1020   15.6360 O.2       1 <0>        -0.2927
     25 O4         19.1350   76.3620   24.1890 O.2       1 <0>        -0.2947
     26 O5         18.1950   71.8110   22.0140 O.3       1 <0>        -0.3474
     27 H1         20.0141   69.7125   20.6477 H         1 <0>         0.0238
     28 H2         18.2682   69.5771   21.0475 H         1 <0>         0.0238
     29 H3         19.0184   68.4202   19.8961 H         1 <0>         0.0238
     30 H4         21.6688   75.2105   19.9579 H         1 <0>         0.0268
     31 H5         21.8722   73.9638   21.2153 H         1 <0>         0.0268
     32 H6         21.1530   75.4666   22.8471 H         1 <0>         0.0272
     33 H7         21.0187   76.7299   21.6032 H         1 <0>         0.0272
     34 H8         21.9954   72.6520   18.8676 H         1 <0>         0.0271
     35 H9         20.5773   72.8631   17.7618 H         1 <0>         0.0271
     36 H10        21.6784   70.7577   17.2188 H         1 <0>         0.0310
     37 H11        21.6438   70.2416   18.9478 H         1 <0>         0.0310
     38 H12        17.3836   67.9189   18.6187 H         1 <0>         0.0345
     39 H13        16.0841   68.4862   17.5492 H         1 <0>         0.0345
     40 H14        17.0585   70.8195   17.6493 H         1 <0>         0.0278
     41 H15        16.5152   70.2056   19.2673 H         1 <0>         0.0278
     42 H16        17.2471   74.2987   19.9886 H         1 <0>         0.0297
     43 H17        16.6264   74.0346   21.6030 H         1 <0>         0.0297
     44 H18        20.2360   69.2035   16.1221 H         1 <0>         0.0652
     45 H19        16.7511   77.3134   22.6336 H         1 <0>         0.0636
     46 H20        16.4730   75.5409   22.6371 H         1 <0>         0.0636
     47 H21        20.5424   71.9620   20.6745 H         1 <0>         0.0307
     48 H22        19.5072   74.4723   19.3800 H         1 <0>         0.0311
     49 H23        18.6882   76.2499   21.1759 H         1 <0>         0.0385
     50 H24        16.6990   71.7072   20.5148 H         1 <0>         0.0600
     51 H25        18.2245   72.5031   18.6457 H         1 <0>         0.0337
     52 H26        20.0570   72.7267   22.7497 H         1 <0>         0.0913
     53 H27        17.2019   76.4622   25.1098 H         1 <0>         0.2100
     54 H28        18.4970   72.4790   24.4233 H         1 <0>         0.2125
@<TRIPOS>BOND
     1    1   20 1
     2    2    3 1
     3    2   12 1
     4    3   13 1
     5    4    5 1
     6    4   11 1
     7    5   17 1
     8    6    7 1
     9    6   18 1
    10    7   20 1
    11    8   14 1
    12    8   21 1
    13    9   17 2
    14    9   18 1
    15   10   19 1
    16   10   22 1
    17   11   12 1
    18   11   15 1
    19   12   21 1
    20   13   19 1
    21   13   21 1
    22   14   15 1
    23   14   26 1
    24   15   20 1
    25   16   21 1
    26   16   23 1
    27   16   26 1
    28   17   20 1
    29   18   24 2
    30   19   25 2
    31    1   27 1
    32    1   28 1
    33    1   29 1
    34    2   30 1
    35    2   31 1
    36    3   32 1
    37    3   33 1
    38    4   34 1
    39    4   35 1
    40    5   36 1
    41    5   37 1
    42    6   38 1
    43    6   39 1
    44    7   40 1
    45    7   41 1
    46    8   42 1
    47    8   43 1
    48    9   44 1
    49   10   45 1
    50   10   46 1
    51   11   47 1
    52   12   48 1
    53   13   49 1
    54   14   50 1
    55   15   51 1
    56   16   52 1
    57   22   53 1
    58   23   54 1
