@<TRIPOS>MOLECULE
OHT_101_2FSZ
   61    63     0     0     0
SMALL
USER_CHARGES

@<TRIPOS>ATOM
      1 C1         89.6910   19.2370   -4.3800 C.3       1 <0>        -0.0647
      2 C2        102.5000   23.0940   -1.9470 C.3       1 <0>        -0.0433
      3 C3        100.5650   23.2800   -0.5870 C.3       1 <0>        -0.0433
      4 C4         93.6950   15.7920   -2.3760 C.ar      1 <0>        -0.0617
      5 C5         93.6490   15.6680   -3.8290 C.ar      1 <0>        -0.0615
      6 C6         93.2920   17.0110   -1.7020 C.ar      1 <0>        -0.0615
      7 C7         93.1880   16.7920   -4.6410 C.ar      1 <0>        -0.0583
      8 C8         92.8320   18.1300   -2.4980 C.ar      1 <0>        -0.0583
      9 C9         91.3280   22.5500   -5.2170 C.ar      1 <0>        -0.0555
     10 C10        93.2970   22.4480   -6.7360 C.ar      1 <0>        -0.0555
     11 C11        94.7010   21.4750   -3.1540 C.ar      1 <0>        -0.0555
     12 C12        95.5500   19.8080   -4.8700 C.ar      1 <0>        -0.0555
     13 C13        90.8880   23.7710   -5.8200 C.ar      1 <0>        -0.0317
     14 C14        92.8740   23.6790   -7.3610 C.ar      1 <0>        -0.0317
     15 C15        96.0320   21.5500   -2.5880 C.ar      1 <0>        -0.0314
     16 C16        96.8760   19.8880   -4.2990 C.ar      1 <0>        -0.0314
     17 C17        90.8600   18.8850   -5.3160 C.3       1 <0>        -0.0482
     18 C18       100.7040   21.5400   -2.3110 C.3       1 <0>        -0.0079
     19 C19        99.4570   21.5750   -3.2030 C.3       1 <0>         0.0940
     20 C20        92.7730   18.0360   -3.9710 C.ar      1 <0>        -0.0434
     21 C21        92.5340   21.8270   -5.6290 C.ar      1 <0>        -0.0392
     22 C22        94.4400   20.5940   -4.3110 C.ar      1 <0>        -0.0392
     23 C23        91.6690   24.3250   -6.8820 C.ar      1 <0>         0.0726
     24 C24        97.1290   20.7390   -3.1710 C.ar      1 <0>         0.0764
     25 C25        92.2720   19.2380   -4.7570 C.3       1 <0>        -0.0053
     26 C26        93.0120   20.4990   -4.9110 C.3       1 <0>         0.0160
     27 N1        101.0410   22.9250   -1.9320 N.4       1 <0>         0.2325
     28 O1         91.2640   25.4910   -7.4560 O.3       1 <0>        -0.3598
     29 O2         98.4540   20.7210   -2.6800 O.3       1 <0>        -0.3394
     30 H1         88.7410   18.9533   -4.8564 H         1 <0>         0.0230
     31 H2         89.8032   18.6905   -3.4320 H         1 <0>         0.0230
     32 H3         89.6930   20.3190   -4.1821 H         1 <0>         0.0230
     33 H4        102.8894   22.8356   -2.9428 H         1 <0>         0.0777
     34 H5        102.7502   24.1399   -1.7158 H         1 <0>         0.0777
     35 H6        102.9533   22.4332   -1.1934 H         1 <0>         0.0777
     36 H7         99.4721   23.1638   -0.5417 H         1 <0>         0.0777
     37 H8        101.0350   22.6176    0.1548 H         1 <0>         0.0777
     38 H9        100.8319   24.3243   -0.3675 H         1 <0>         0.0777
     39 H10        94.0381   14.9542   -1.7872 H         1 <0>         0.0618
     40 H11        93.9551   14.7473   -4.3034 H         1 <0>         0.0618
     41 H12        93.3341   17.0832   -0.6252 H         1 <0>         0.0618
     42 H13        93.1521   16.7115   -5.7174 H         1 <0>         0.0620
     43 H14        92.5286   19.0439   -2.0090 H         1 <0>         0.0620
     44 H15        90.7373   22.1379   -4.4122 H         1 <0>         0.0621
     45 H16        94.1973   21.9654   -7.0865 H         1 <0>         0.0621
     46 H17        93.8998   22.0626   -2.7306 H         1 <0>         0.0621
     47 H18        95.3726   19.1628   -5.7177 H         1 <0>         0.0621
     48 H19        89.9878   24.2622   -5.4811 H         1 <0>         0.0643
     49 H20        93.4450   24.1099   -8.1701 H         1 <0>         0.0643
     50 H21        96.2255   22.1948   -1.7435 H         1 <0>         0.0643
     51 H22        97.6799   19.3047   -4.7232 H         1 <0>         0.0643
     52 H23        90.8316   17.8000   -5.4948 H         1 <0>         0.0269
     53 H24        90.7203   19.4450   -6.2524 H         1 <0>         0.0269
     54 H25       100.5016   20.9442   -1.4087 H         1 <0>         0.0837
     55 H26       101.5434   21.0878   -2.8595 H         1 <0>         0.0837
     56 H27        99.0705   22.6040   -3.2440 H         1 <0>         0.0619
     57 H28        99.7267   21.2387   -4.2150 H         1 <0>         0.0619
     58 H29        92.7107   20.1941   -5.0786 H         1 <0>         0.0358
     59 H30        92.0254   20.1376   -5.2367 H         1 <0>         0.0403
     60 H31       100.5893   23.5216   -2.5953 H         1 <0>         0.2028
     61 H32        91.8748   25.7362   -8.1410 H         1 <0>         0.2173
@<TRIPOS>BOND
     1    1   17 1
     2    2   27 1
     3    3   27 1
     4    4    5 ar
     5    4    6 ar
     6    5    7 ar
     7    6    8 ar
     8    7   20 ar
     9    8   20 ar
    10    9   13 ar
    11    9   21 ar
    12   10   14 ar
    13   10   21 ar
    14   11   15 ar
    15   11   22 ar
    16   12   16 ar
    17   12   22 ar
    18   13   23 ar
    19   14   23 ar
    20   15   24 ar
    21   16   24 ar
    22   17   25 1
    23   18   19 1
    24   18   27 1
    25   19   29 1
    26   20   25 1
    27   21   26 1
    28   22   26 1
    29   23   28 1
    30   24   29 1
    31   25   26 1
    32    1   30 1
    33    1   31 1
    34    1   32 1
    35    2   33 1
    36    2   34 1
    37    2   35 1
    38    3   36 1
    39    3   37 1
    40    3   38 1
    41    4   39 1
    42    5   40 1
    43    6   41 1
    44    7   42 1
    45    8   43 1
    46    9   44 1
    47   10   45 1
    48   11   46 1
    49   12   47 1
    50   13   48 1
    51   14   49 1
    52   15   50 1
    53   16   51 1
    54   17   52 1
    55   17   53 1
    56   18   54 1
    57   18   55 1
    58   19   56 1
    59   19   57 1
    60   25   58 1
    61   26   59 1
    62   27   60 1
    63   28   61 1
