@<TRIPOS>MOLECULE
NOC_434_1LI4
   32    34     0     0     0
SMALL
USER_CHARGES

@<TRIPOS>ATOM
      1 C1         49.4060  -22.6100  102.5020 C.ar      1 <0>         0.1203
      2 C2         47.0330  -19.3640  100.6760 C.2       1 <0>         0.0904
      3 C3         44.9400  -19.7130  103.1690 C.3       1 <0>        -0.0193
      4 C4         42.9700  -18.8800  104.4030 C.3       1 <0>         0.0538
      5 C5         48.4810  -20.9420  100.5410 C.ar      1 <0>         0.1448
      6 C6         49.4730  -21.9390  100.2160 C.ar      1 <0>         0.1469
      7 C7         48.0430  -20.8920  101.9050 C.ar      1 <0>         0.1572
      8 C8         44.3370  -18.8100  104.0190 C.3       1 <0>         0.0450
      9 C9         46.4280  -19.4820  103.1520 C.3       1 <0>         0.0643
     10 C10        46.4790  -17.9870  103.6650 C.3       1 <0>         0.1321
     11 C11        45.3030  -17.8470  104.5790 C.2       1 <0>         0.1686
     12 N1         49.9870  -22.0920   98.9540 N.pl3     1 <0>        -0.3413
     13 N2         49.8890  -22.7510  101.2830 N.ar      1 <0>        -0.2189
     14 N3         48.4820  -21.7170  102.9280 N.ar      1 <0>        -0.2181
     15 N4         47.7970  -19.9540   99.8240 N.2       1 <0>        -0.2332
     16 N5         47.1500  -19.8960  101.9590 N.pl3     1 <0>        -0.2682
     17 O1         42.7730  -20.0430  105.2780 O.3       1 <0>        -0.3943
     18 O2         47.6540  -17.6860  104.4020 O.3       1 <0>        -0.3824
     19 O3         45.0870  -16.8260  105.1880 O.2       1 <0>        -0.2942
     20 H1         49.7935  -23.2871  103.2489 H         1 <0>         0.1048
     21 H2         46.3737  -18.5465  100.4242 H         1 <0>         0.1003
     22 H3         44.7336  -20.7358  103.5174 H         1 <0>         0.0292
     23 H4         44.5389  -19.5817  102.1532 H         1 <0>         0.0292
     24 H5         42.6913  -17.9624  104.9418 H         1 <0>         0.0564
     25 H6         42.3405  -18.9825  103.5068 H         1 <0>         0.0564
     26 H7         43.3400  -18.4216  103.7638 H         1 <0>         0.0401
     27 H8         47.0307  -20.1475  103.7875 H         1 <0>         0.0534
     28 H9         46.4688  -17.3031  102.8035 H         1 <0>         0.0692
     29 H10        50.6574  -22.8340   98.9543 H         1 <0>         0.1438
     30 H11        49.2476  -22.3112   98.3174 H         1 <0>         0.1438
     31 H12        41.8605  -20.0938  105.5373 H         1 <0>         0.2094
     32 H13        47.4255  -17.1698  105.1661 H         1 <0>         0.2104
@<TRIPOS>BOND
     1    1   13 ar
     2    1   14 ar
     3    2   15 2
     4    2   16 1
     5    3    8 1
     6    3    9 1
     7    4    8 1
     8    4   17 1
     9    5    6 ar
    10    5    7 ar
    11    5   15 1
    12    6   12 1
    13    6   13 ar
    14    7   14 ar
    15    7   16 1
    16    8   11 1
    17    9   10 1
    18    9   16 1
    19   10   11 1
    20   10   18 1
    21   11   19 2
    22    1   20 1
    23    2   21 1
    24    3   22 1
    25    3   23 1
    26    4   24 1
    27    4   25 1
    28    8   26 1
    29    9   27 1
    30   10   28 1
    31   12   29 1
    32   12   30 1
    33   17   31 1
    34   18   32 1
