@<TRIPOS>MOLECULE
BRE_397_1D3G
   42    45     0     0     0
SMALL
USER_CHARGES

@<TRIPOS>ATOM
      1 C1         50.0330   43.3060   -5.2500 C.3       1 <0>        -0.0370
      2 C2         56.1860   48.5320   -0.6530 C.ar      1 <0>        -0.0617
      3 C3         55.6780   47.6130    0.2470 C.ar      1 <0>        -0.0612
      4 C4         55.6390   48.6290   -1.9150 C.ar      1 <0>        -0.0612
      5 C5         54.6510   46.7710   -0.1480 C.ar      1 <0>        -0.0540
      6 C6         54.6160   47.7880   -2.3290 C.ar      1 <0>        -0.0540
      7 C7         53.1650   45.0550   -2.9440 C.ar      1 <0>        -0.0534
      8 C8         51.8860   45.6300   -1.0000 C.ar      1 <0>        -0.0534
      9 C9         52.2830   44.0620   -3.3090 C.ar      1 <0>        -0.0520
     10 C10        50.9840   44.6410   -1.3570 C.ar      1 <0>        -0.0520
     11 C11        47.8720   39.1670   -0.7230 C.ar      1 <0>        -0.0244
     12 C12        48.7810   40.2100   -0.6860 C.ar      1 <0>        -0.0330
     13 C13        47.5990   39.5560   -3.0780 C.ar      1 <0>        -0.0166
     14 C14        49.7120   42.4580   -4.0370 C.ar      1 <0>        -0.0150
     15 C15        54.0720   46.8850   -1.4230 C.ar      1 <0>        -0.0179
     16 C16        52.9960   45.8600   -1.8290 C.ar      1 <0>        -0.0178
     17 C17        51.1700   43.8720   -2.4830 C.ar      1 <0>         0.0007
     18 C18        47.2690   38.8550   -1.9320 C.ar      1 <0>         0.1241
     19 C19        49.1130   40.9190   -1.8360 C.ar      1 <0>         0.0725
     20 C20        48.5240   40.5940   -3.0520 C.ar      1 <0>         0.0122
     21 C21        48.8510   41.3720   -4.1630 C.ar      1 <0>         0.0115
     22 C22        50.2340   42.7540   -2.7920 C.ar      1 <0>         0.0752
     23 C23        48.2990   41.0310   -5.5210 C.2       1 <0>         0.0726
     24 N1         49.9670   41.9490   -1.7270 N.ar      1 <0>        -0.2464
     25 O1         49.1690   40.4600   -6.3790 O.co2     1 <0>        -0.5446
     26 O2         47.1710   41.2320   -5.8680 O.co2     1 <0>        -0.5446
     27 F1         46.3970   37.9740   -1.9620 F         1 <0>        -0.2055
     28 H1         49.2969   44.1190   -5.3349 H         1 <0>         0.0278
     29 H2         51.0407   43.7337   -5.1419 H         1 <0>         0.0278
     30 H3         49.9948   42.6812   -6.1545 H         1 <0>         0.0278
     31 H4         57.0084   49.1716   -0.3683 H         1 <0>         0.0618
     32 H5         56.0781   47.5522    1.2483 H         1 <0>         0.0618
     33 H6         56.0156   49.3769   -2.5970 H         1 <0>         0.0618
     34 H7         54.2901   46.0157    0.5345 H         1 <0>         0.0624
     35 H8         54.2469   47.8344   -3.3429 H         1 <0>         0.0624
     36 H9         54.0367   45.2150   -3.5612 H         1 <0>         0.0624
     37 H10        51.7386   46.2123   -0.1024 H         1 <0>         0.0624
     38 H11        52.4430   43.4590   -4.1906 H         1 <0>         0.0624
     39 H12        50.1157   44.4697   -0.7380 H         1 <0>         0.0624
     40 H13        47.6373   38.6080    0.1708 H         1 <0>         0.0647
     41 H14        49.2413   40.4786    0.2534 H         1 <0>         0.0640
     42 H15        47.1280   39.2914   -4.0132 H         1 <0>         0.0653
@<TRIPOS>BOND
     1    1   14 1
     2    2    3 ar
     3    2    4 ar
     4    3    5 ar
     5    4    6 ar
     6    5   15 ar
     7    6   15 ar
     8    7    9 ar
     9    7   16 ar
    10    8   10 ar
    11    8   16 ar
    12    9   17 ar
    13   10   17 ar
    14   11   12 ar
    15   11   18 ar
    16   12   19 ar
    17   13   18 ar
    18   13   20 ar
    19   14   21 ar
    20   14   22 ar
    21   15   16 1
    22   17   22 1
    23   18   27 1
    24   19   20 ar
    25   19   24 ar
    26   20   21 ar
    27   21   23 1
    28   22   24 ar
    29   23   25 1
    30   23   26 2
    31    1   28 1
    32    1   29 1
    33    1   30 1
    34    2   31 1
    35    3   32 1
    36    4   33 1
    37    5   34 1
    38    6   35 1
    39    7   36 1
    40    8   37 1
    41    9   38 1
    42   10   39 1
    43   11   40 1
    44   12   41 1
    45   13   42 1
