@<TRIPOS>MOLECULE
A49_2_3FRJ
   63    66     0     0     0
SMALL
USER_CHARGES

@<TRIPOS>ATOM
      1 C1         51.1960   28.7570   41.8220 C.3       1 <0>        -0.0233
      2 C2         52.9240   24.8110   41.9710 C.ar      1 <0>        -0.0493
      3 C3         51.2960   24.2710   40.2450 C.ar      1 <0>        -0.0493
      4 C4         52.6730   26.1780   41.8010 C.ar      1 <0>        -0.0549
      5 C5         51.0700   25.6070   40.0220 C.ar      1 <0>        -0.0549
      6 C6         51.6250   19.4380   40.6940 C.3       1 <0>        -0.0326
      7 C7         52.4630   19.3090   39.4500 C.3       1 <0>        -0.0326
      8 C8         55.4050   21.5740   39.8900 C.3       1 <0>         0.0063
      9 C9         53.5290   22.2980   38.2300 C.3       1 <0>         0.0063
     10 C10        59.2820   22.7800   37.5660 C.3       1 <0>        -0.0330
     11 C11        59.2390   23.1320   36.0720 C.3       1 <0>        -0.0330
     12 C12        56.3290   22.4580   39.0600 C.3       1 <0>        -0.0301
     13 C13        54.5880   22.9870   37.4150 C.3       1 <0>        -0.0301
     14 C14        56.8350   22.9540   36.6890 C.3       1 <0>        -0.0177
     15 C15        52.2460   23.8730   41.2080 C.ar      1 <0>         0.0369
     16 C16        51.7470   26.5500   40.7970 C.ar      1 <0>        -0.0077
     17 C17        53.0190   20.0620   40.6680 C.3       1 <0>         0.0267
     18 C18        54.0110   22.1900   39.7100 C.3       1 <0>         0.0362
     19 C19        52.3750   22.3910   41.3980 C.2       1 <0>         0.2471
     20 C20        58.2160   20.8010   36.2770 C.2       1 <0>         0.2218
     21 C21        58.1660   22.2540   36.7020 C.3       1 <0>         0.0864
     22 C22        51.4450   27.9990   40.5240 C.3       1 <0>         0.1828
     23 C23        52.6110   28.5910   39.7540 C.3       1 <0>         0.4221
     24 N1         59.3770   20.2780   36.0440 N.am      1 <0>        -0.3287
     25 N2         55.8860   22.3040   37.6130 N.4       1 <0>         0.2361
     26 N3         52.9150   21.5410   40.3940 N.am      1 <0>        -0.2911
     27 O1         50.2980   28.1090   39.6560 O.3       1 <0>        -0.3758
     28 O2         51.7910   21.9030   42.3650 O.2       1 <0>        -0.2700
     29 O3         57.1950   20.1160   36.2450 O.2       1 <0>        -0.2752
     30 F1         52.7430   27.9570   38.6110 F         1 <0>        -0.1673
     31 F2         53.7740   28.5060   40.3860 F         1 <0>        -0.1673
     32 F3         52.2250   29.8180   39.5700 F         1 <0>        -0.1673
     33 H1         50.9780   29.8112   41.5956 H         1 <0>         0.0263
     34 H2         50.3396   28.3106   42.3486 H         1 <0>         0.0263
     35 H3         52.0906   28.6964   42.4592 H         1 <0>         0.0263
     36 H4         53.6503   24.4854   42.7010 H         1 <0>         0.0625
     37 H5         50.7481   23.5278   39.6848 H         1 <0>         0.0625
     38 H6         53.1665   26.9194   42.4119 H         1 <0>         0.0621
     39 H7         50.3772   25.9241   39.2566 H         1 <0>         0.0621
     40 H8         50.6389   19.9016   40.8446 H         1 <0>         0.0284
     41 H9         51.2021   18.6648   41.3522 H         1 <0>         0.0284
     42 H10        52.8366   18.4172   38.9255 H         1 <0>         0.0284
     43 H11        52.2762   19.6481   38.4204 H         1 <0>         0.0284
     44 H12        55.4270   20.5336   39.5335 H         1 <0>         0.0335
     45 H13        55.7037   21.5732   40.9487 H         1 <0>         0.0335
     46 H14        52.5957   22.8786   38.1879 H         1 <0>         0.0335
     47 H15        53.3505   21.2905   37.8261 H         1 <0>         0.0335
     48 H16        60.0430   22.2516   38.1591 H         1 <0>         0.0277
     49 H17        59.2593   23.4236   38.4578 H         1 <0>         0.0277
     50 H18        59.1761   24.1000   35.5533 H         1 <0>         0.0277
     51 H19        59.9525   22.9389   35.2573 H         1 <0>         0.0277
     52 H20        56.2465   23.5076   39.3785 H         1 <0>         0.0815
     53 H21        57.3753   22.1400   39.1785 H         1 <0>         0.0815
     54 H22        54.3131   22.9502   36.3505 H         1 <0>         0.0815
     55 H23        54.6730   24.0357   37.7359 H         1 <0>         0.0815
     56 H24        56.9779   23.9992   37.0005 H         1 <0>         0.0825
     57 H25        56.4226   22.9185   35.6699 H         1 <0>         0.0825
     58 H26        53.9136   20.0072   41.3057 H         1 <0>         0.0501
     59 H27        54.2107   23.1733   40.1609 H         1 <0>         0.0504
     60 H28        59.4533   19.3033   35.8341 H         1 <0>         0.1449
     61 H29        60.1976   20.8487   36.0739 H         1 <0>         0.1449
     62 H30        55.8299   21.3232   37.4260 H         1 <0>         0.2034
     63 H31        50.4632   27.6335   38.8503 H         1 <0>         0.2110
@<TRIPOS>BOND
     1    1   22 1
     2    2    4 ar
     3    2   15 ar
     4    3    5 ar
     5    3   15 ar
     6    4   16 ar
     7    5   16 ar
     8    6    7 1
     9    6   17 1
    10    7   17 1
    11    8   12 1
    12    8   18 1
    13    9   13 1
    14    9   18 1
    15   10   11 1
    16   10   21 1
    17   11   21 1
    18   12   25 1
    19   13   25 1
    20   14   21 1
    21   14   25 1
    22   15   19 1
    23   16   22 1
    24   17   26 1
    25   18   26 1
    26   19   26 am
    27   19   28 2
    28   20   21 1
    29   20   24 am
    30   20   29 2
    31   22   23 1
    32   22   27 1
    33   23   30 1
    34   23   31 1
    35   23   32 1
    36    1   33 1
    37    1   34 1
    38    1   35 1
    39    2   36 1
    40    3   37 1
    41    4   38 1
    42    5   39 1
    43    6   40 1
    44    6   41 1
    45    7   42 1
    46    7   43 1
    47    8   44 1
    48    8   45 1
    49    9   46 1
    50    9   47 1
    51   10   48 1
    52   10   49 1
    53   11   50 1
    54   11   51 1
    55   12   52 1
    56   12   53 1
    57   13   54 1
    58   13   55 1
    59   14   56 1
    60   14   57 1
    61   17   58 1
    62   18   59 1
    63   24   60 1
    64   24   61 1
    65   25   62 1
    66   27   63 1
