@<TRIPOS>MOLECULE
BB2_501_1LRU
   62    62     0     0     0
SMALL
USER_CHARGES

@<TRIPOS>ATOM
      1 C1        -35.6930   22.1120   67.4400 C.3       1 <0>        -0.0653
      2 C2        -38.3770   29.2070   67.5030 C.3       1 <0>        -0.0605
      3 C3        -40.2010   27.8240   68.3990 C.3       1 <0>        -0.0605
      4 C4        -38.6940   23.9040   71.0830 C.3       1 <0>        -0.0354
      5 C5        -39.5380   22.9190   70.3720 C.3       1 <0>        -0.0307
      6 C6        -38.8510   25.1460   70.2840 C.3       1 <0>         0.0152
      7 C7        -35.4750   22.8230   66.1300 C.3       1 <0>        -0.0559
      8 C8        -34.4360   23.9440   66.0590 C.3       1 <0>        -0.0533
      9 C9        -34.3740   24.7040   67.3500 C.3       1 <0>        -0.0524
     10 C10       -33.5900   26.0320   67.2000 C.3       1 <0>        -0.0415
     11 C11       -40.6730   23.3770   68.0730 C.3       1 <0>         0.0628
     12 C12       -33.6620   28.5440   66.6210 C.3       1 <0>         0.0370
     13 C13       -39.3620   23.2540   68.8790 C.3       1 <0>         0.0492
     14 C14       -38.9930   27.8160   67.5190 C.3       1 <0>        -0.0197
     15 C15       -34.4410   27.2210   66.7220 C.3       1 <0>         0.0438
     16 C16       -37.9760   26.7650   68.0300 C.3       1 <0>         0.1019
     17 C17       -32.7850   28.4930   65.3750 C.2       1 <0>         0.2362
     18 C18       -35.6310   27.3460   67.6710 C.2       1 <0>         0.2172
     19 C19       -38.5230   25.3480   67.8160 C.2       1 <0>         0.2365
     20 N1        -36.7500   26.7830   67.2450 N.am      1 <0>        -0.3035
     21 N2        -31.6550   27.8160   65.3780 N.am      1 <0>        -0.1975
     22 N3        -38.8410   24.6280   68.9100 N.am      1 <0>        -0.2947
     23 O1        -41.3410   22.1560   67.7700 O.3       1 <0>        -0.3932
     24 O2        -30.9460   27.7420   64.1470 O.3       1 <0>        -0.2952
     25 O3        -33.0980   29.0810   64.3220 O.2       1 <0>        -0.2737
     26 O4        -35.5210   27.8780   68.7720 O.2       1 <0>        -0.2755
     27 O5        -38.6540   24.9030   66.6740 O.2       1 <0>        -0.2735
     28 H1        -36.4679   21.3413   67.3150 H         1 <0>         0.0230
     29 H2        -34.7534   21.6384   67.7607 H         1 <0>         0.0230
     30 H3        -36.0167   22.8372   68.2011 H         1 <0>         0.0230
     31 H4        -37.4870   29.2070   66.8565 H         1 <0>         0.0233
     32 H5        -39.1114   29.9286   67.1157 H         1 <0>         0.0233
     33 H6        -38.0873   29.4913   68.5254 H         1 <0>         0.0233
     34 H7        -40.6508   26.8203   68.4144 H         1 <0>         0.0233
     35 H8        -39.9087   28.1103   69.4201 H         1 <0>         0.0233
     36 H9        -40.9327   28.5476   68.0104 H         1 <0>         0.0233
     37 H10       -39.0316   24.0481   72.1199 H         1 <0>         0.0281
     38 H11       -37.6434   23.5803   71.1200 H         1 <0>         0.0281
     39 H12       -39.2118   21.8908   70.5873 H         1 <0>         0.0284
     40 H13       -40.5914   23.0091   70.6756 H         1 <0>         0.0284
     41 H14       -39.7873   25.6731   70.5198 H         1 <0>         0.0465
     42 H15       -38.0320   25.8583   70.4627 H         1 <0>         0.0465
     43 H16       -35.1546   22.0560   65.4095 H         1 <0>         0.0263
     44 H17       -36.4398   23.2756   65.8576 H         1 <0>         0.0263
     45 H18       -33.4487   23.5035   65.8562 H         1 <0>         0.0265
     46 H19       -34.7123   24.6363   65.2500 H         1 <0>         0.0265
     47 H20       -35.3999   24.9349   67.6727 H         1 <0>         0.0265
     48 H21       -33.8697   24.0800   68.1025 H         1 <0>         0.0265
     49 H22       -33.1719   26.2902   68.1842 H         1 <0>         0.0273
     50 H23       -32.7907   25.8706   66.4617 H         1 <0>         0.0273
     51 H24       -41.3662   23.9902   68.6675 H         1 <0>         0.0576
     52 H25       -40.4248   23.8601   67.1165 H         1 <0>         0.0576
     53 H26       -34.3655   29.3864   66.5477 H         1 <0>         0.0366
     54 H27       -33.0337   28.6760   67.5142 H         1 <0>         0.0366
     55 H28       -38.7569   22.4620   68.4136 H         1 <0>         0.0523
     56 H29       -39.2791   27.5433   66.4925 H         1 <0>         0.0318
     57 H30       -34.7739   27.0205   65.6929 H         1 <0>         0.0399
     58 H31       -37.7967   27.0093   69.0874 H         1 <0>         0.0597
     59 H32       -36.7538   26.3504   66.3434 H         1 <0>         0.1495
     60 H33       -31.3116   27.3746   66.2070 H         1 <0>         0.1822
     61 H34       -42.1306   22.3408   67.2752 H         1 <0>         0.2095
     62 H35       -31.4052   28.2463   63.4857 H         1 <0>         0.2414
@<TRIPOS>BOND
     1    1    7 1
     2    2   14 1
     3    3   14 1
     4    4    5 1
     5    4    6 1
     6    5   13 1
     7    6   22 1
     8    7    8 1
     9    8    9 1
    10    9   10 1
    11   10   15 1
    12   11   13 1
    13   11   23 1
    14   12   15 1
    15   12   17 1
    16   13   22 1
    17   14   16 1
    18   15   18 1
    19   16   19 1
    20   16   20 1
    21   17   21 am
    22   17   25 2
    23   18   20 am
    24   18   26 2
    25   19   22 am
    26   19   27 2
    27   21   24 1
    28    1   28 1
    29    1   29 1
    30    1   30 1
    31    2   31 1
    32    2   32 1
    33    2   33 1
    34    3   34 1
    35    3   35 1
    36    3   36 1
    37    4   37 1
    38    4   38 1
    39    5   39 1
    40    5   40 1
    41    6   41 1
    42    6   42 1
    43    7   43 1
    44    7   44 1
    45    8   45 1
    46    8   46 1
    47    9   47 1
    48    9   48 1
    49   10   49 1
    50   10   50 1
    51   11   51 1
    52   11   52 1
    53   12   53 1
    54   12   54 1
    55   13   55 1
    56   14   56 1
    57   15   57 1
    58   16   58 1
    59   20   59 1
    60   21   60 1
    61   23   61 1
    62   24   62 1
