@<TRIPOS>MOLECULE
TES_A1000_2AM9
   51    54     0     0     0
SMALL
USER_CHARGES

@<TRIPOS>ATOM
      1 C1         28.5870   -0.2730    6.1200 C.3       1 <0>        -0.0569
      2 C2         26.3440    3.8460    6.7980 C.3       1 <0>        -0.0556
      3 C3         26.6680   -1.1630    3.8940 C.3       1 <0>        -0.0470
      4 C4         27.9500   -1.9990    3.6690 C.3       1 <0>        -0.0261
      5 C5         24.8770    1.4740    4.0590 C.3       1 <0>        -0.0460
      6 C6         26.0870    6.5150    5.0500 C.3       1 <0>        -0.0224
      7 C7         28.5550    2.7000    5.0980 C.3       1 <0>        -0.0486
      8 C8         24.0890    2.5690    4.7900 C.3       1 <0>        -0.0309
      9 C9         26.9610    5.2750    4.7480 C.3       1 <0>        -0.0410
     10 C10        29.3370    1.5340    4.4490 C.3       1 <0>        -0.0447
     11 C11        24.1250    5.0470    4.4570 C.2       1 <0>        -0.0561
     12 C12        24.7140    6.3800    4.4550 C.3       1 <0>         0.0736
     13 C13        26.3060    1.3630    4.6670 C.3       1 <0>        -0.0337
     14 C14        27.1900    0.2970    3.9730 C.3       1 <0>        -0.0301
     15 C15        27.0680    2.7200    4.5650 C.3       1 <0>        -0.0288
     16 C16        29.1270   -0.9850    3.6840 C.3       1 <0>         0.0609
     17 C17        24.8080    3.9090    4.8030 C.2       1 <0>        -0.0649
     18 C18        28.6170    0.1640    4.6020 C.3       1 <0>        -0.0030
     19 C19        26.3230    3.9250    5.2440 C.3       1 <0>        -0.0078
     20 O1         24.0440    7.4060    3.9390 O.3       1 <0>        -0.3878
     21 O2         30.3270   -1.5900    4.2060 O.3       1 <0>        -0.3912
     22 H1         28.0755   -1.2424    6.2130 H         1 <0>         0.0236
     23 H2         29.6169   -0.3646    6.4954 H         1 <0>         0.0236
     24 H3         28.0479    0.4838    6.7087 H         1 <0>         0.0236
     25 H4         25.8943    2.8964    7.1235 H         1 <0>         0.0238
     26 H5         27.3835    3.9002    7.1537 H         1 <0>         0.0238
     27 H6         25.7692    4.6858    7.2155 H         1 <0>         0.0238
     28 H7         25.9544   -1.2906    3.0667 H         1 <0>         0.0269
     29 H8         26.1539   -1.4569    4.8210 H         1 <0>         0.0269
     30 H9         28.0712   -2.7468    4.4666 H         1 <0>         0.0290
     31 H10        27.9049   -2.5278    2.7055 H         1 <0>         0.0290
     32 H11        24.3561    0.5117    4.1714 H         1 <0>         0.0271
     33 H12        24.9526    1.7287    2.9916 H         1 <0>         0.0271
     34 H13        25.9915    6.6241    6.1404 H         1 <0>         0.0293
     35 H14        26.5730    7.4039    4.6215 H         1 <0>         0.0293
     36 H15        28.5472    2.5682    6.1900 H         1 <0>         0.0268
     37 H16        29.0446    3.6515    4.8431 H         1 <0>         0.0268
     38 H17        23.1234    2.6996    4.2795 H         1 <0>         0.0310
     39 H18        23.9360    2.2485    5.8311 H         1 <0>         0.0310
     40 H19        27.0992    5.2095    3.6587 H         1 <0>         0.0275
     41 H20        27.9280    5.4047    5.2560 H         1 <0>         0.0275
     42 H21        29.4502    1.7478    3.3759 H         1 <0>         0.0271
     43 H22        30.3213    1.4642    4.9351 H         1 <0>         0.0271
     44 H23        23.0887    4.9494    4.1688 H         1 <0>         0.0597
     45 H24        24.5973    7.4574    4.2665 H         1 <0>         0.0638
     46 H25        26.1421    1.0696    5.7144 H         1 <0>         0.0307
     47 H26        27.1839    0.7247    2.9596 H         1 <0>         0.0310
     48 H27        27.0961    2.8709    3.4758 H         1 <0>         0.0312
     49 H28        29.3968   -0.6285    2.6789 H         1 <0>         0.0599
     50 H29        23.2015    7.1057    3.6188 H         1 <0>         0.2102
     51 H30        31.0304   -0.9515    4.2049 H         1 <0>         0.2098
@<TRIPOS>BOND
     1    1   18 1
     2    2   19 1
     3    3    4 1
     4    3   14 1
     5    4   16 1
     6    5    8 1
     7    5   13 1
     8    6    9 1
     9    6   12 1
    10    7   10 1
    11    7   15 1
    12    8   17 1
    13    9   19 1
    14   10   18 1
    15   11   12 1
    16   11   17 2
    17   12   20 1
    18   13   14 1
    19   13   15 1
    20   14   18 1
    21   15   19 1
    22   16   18 1
    23   16   21 1
    24   17   19 1
    25    1   22 1
    26    1   23 1
    27    1   24 1
    28    2   25 1
    29    2   26 1
    30    2   27 1
    31    3   28 1
    32    3   29 1
    33    4   30 1
    34    4   31 1
    35    5   32 1
    36    5   33 1
    37    6   34 1
    38    6   35 1
    39    7   36 1
    40    7   37 1
    41    8   38 1
    42    8   39 1
    43    9   40 1
    44    9   41 1
    45   10   42 1
    46   10   43 1
    47   11   44 1
    48   12   45 1
    49   13   46 1
    50   14   47 1
    51   15   48 1
    52   16   49 1
    53   20   50 1
    54   21   51 1
