@<TRIPOS>MOLECULE
CEL_682_3LN1
   40    42     0     0     0
SMALL
USER_CHARGES

@<TRIPOS>ATOM
      1 C1         32.0560  -25.2900  -11.3060 C.3       1 <0>        -0.0397
      2 C2         33.0230  -25.0300  -13.5490 C.ar      1 <0>        -0.0582
      3 C3         31.4460  -23.3900  -12.8190 C.ar      1 <0>        -0.0582
      4 C4         33.1520  -24.3730  -14.7430 C.ar      1 <0>        -0.0525
      5 C5         31.5700  -22.7350  -14.0160 C.ar      1 <0>        -0.0525
      6 C6         29.5840  -22.9640  -16.5430 C.ar      1 <0>        -0.0366
      7 C7         29.7960  -20.8530  -17.6970 C.ar      1 <0>        -0.0366
      8 C8         28.2180  -22.8290  -16.5560 C.ar      1 <0>        -0.0333
      9 C9         28.4340  -20.7140  -17.7070 C.ar      1 <0>        -0.0333
     10 C10        33.8430  -22.3370  -16.8370 C.2       1 <0>        -0.0063
     11 C11        32.1700  -24.5410  -12.5870 C.ar      1 <0>        -0.0504
     12 C12        32.4170  -23.2370  -14.9850 C.ar      1 <0>        -0.0017
     13 C13        30.3410  -21.9670  -17.1090 C.ar      1 <0>         0.0573
     14 C14        27.6790  -21.7060  -17.1310 C.ar      1 <0>         0.1080
     15 C15        32.6220  -22.5740  -16.2600 C.2       1 <0>         0.0663
     16 C16        33.5890  -21.6370  -18.0310 C.2       1 <0>         0.1639
     17 C17        34.5540  -21.1350  -19.0020 C.3       1 <0>         0.4358
     18 N1         25.3780  -22.2260  -18.6050 N.pl3     1 <0>        -0.2609
     19 N2         32.2900  -21.4240  -18.2010 N.2       1 <0>        -0.1705
     20 N3         31.7240  -22.0060  -17.1320 N.pl3     1 <0>        -0.1920
     21 O1         25.4360  -22.1060  -15.9490 O.2       1 <0>        -0.1505
     22 O2         25.7720  -20.0390  -17.2910 O.2       1 <0>        -0.1505
     23 F1         35.8160  -21.2140  -18.5440 F         1 <0>        -0.1644
     24 F2         34.3020  -19.8280  -19.2230 F         1 <0>        -0.1644
     25 F3         34.5600  -21.7520  -20.2100 F         1 <0>        -0.1644
     26 S1         25.9310  -21.4670  -17.1550 S.o2      1 <0>         0.0659
     27 H1         32.8003  -24.9098  -10.5908 H         1 <0>         0.0278
     28 H2         31.0464  -25.1546  -10.8909 H         1 <0>         0.0278
     29 H3         32.2369  -26.3594  -11.4894 H         1 <0>         0.0278
     30 H4         33.5897  -25.9303  -13.3627 H         1 <0>         0.0620
     31 H5         30.7825  -23.0058  -12.0584 H         1 <0>         0.0620
     32 H6         33.8312  -24.7472  -15.4947 H         1 <0>         0.0624
     33 H7         31.0086  -21.8311  -14.2010 H         1 <0>         0.0624
     34 H8         30.0512  -23.8309  -16.0996 H         1 <0>         0.0637
     35 H9         30.4293  -20.1006  -18.1432 H         1 <0>         0.0637
     36 H10        27.5830  -23.5884  -16.1241 H         1 <0>         0.0638
     37 H11        27.9669  -19.8493  -18.1549 H         1 <0>         0.0638
     38 H12        34.8085  -22.6296  -16.4515 H         1 <0>         0.0658
     39 H13        24.3858  -22.1244  -18.6775 H         1 <0>         0.1635
     40 H14        25.8156  -21.7953  -19.3943 H         1 <0>         0.1635
@<TRIPOS>BOND
     1    1   11 1
     2    2    4 ar
     3    2   11 ar
     4    3    5 ar
     5    3   11 ar
     6    4   12 ar
     7    5   12 ar
     8    6    8 ar
     9    6   13 ar
    10    7    9 ar
    11    7   13 ar
    12    8   14 ar
    13    9   14 ar
    14   10   15 2
    15   10   16 1
    16   12   15 1
    17   13   20 1
    18   14   26 1
    19   15   20 1
    20   16   17 1
    21   16   19 2
    22   17   23 1
    23   17   24 1
    24   17   25 1
    25   18   26 1
    26   19   20 1
    27   21   26 2
    28   22   26 2
    29    1   27 1
    30    1   28 1
    31    1   29 1
    32    2   30 1
    33    3   31 1
    34    4   32 1
    35    5   33 1
    36    6   34 1
    37    7   35 1
    38    8   36 1
    39    9   37 1
    40   10   38 1
    41   18   39 1
    42   18   40 1
