@<TRIPOS>MOLECULE
982_301_2AZR
   22    23     0     0     0
SMALL
USER_CHARGES

@<TRIPOS>ATOM
      1 C1         46.4850   11.0190    2.3170 C.ar      1 <0>        -0.0429
      2 C2         46.4550   12.2720    2.9360 C.ar      1 <0>        -0.0481
      3 C3         45.8240   10.8500    1.1090 C.ar      1 <0>         0.0289
      4 C4         47.2510   16.0130    3.6410 C.3       1 <0>         0.0935
      5 C5         45.7540   13.3290    2.3110 C.ar      1 <0>         0.0383
      6 C6         45.5370   14.7090    2.6630 C.2       1 <0>         0.1018
      7 C7         44.7650   15.3620    1.7120 C.2       1 <0>         0.0670
      8 C8         45.1370   13.0150    1.0940 C.ar      1 <0>         0.1113
      9 C9         47.4750   16.9630    4.8310 C.2       1 <0>         0.0679
     10 C10        44.3010   16.8600    1.7050 C.2       1 <0>         0.0808
     11 N1         45.1360   11.8170    0.4610 N.ar      1 <0>        -0.2477
     12 O1         46.6160   16.9760    5.7460 O.co2     1 <0>        -0.5474
     13 O2         44.4540   17.5450    2.7620 O.co2     1 <0>        -0.5440
     14 O3         48.5250   17.6360    4.7770 O.co2     1 <0>        -0.5474
     15 O4         43.8000   17.2620    0.6140 O.co2     1 <0>        -0.5440
     16 O5         46.0160   15.2980    3.8050 O.3       1 <0>        -0.3371
     17 S1         44.3260   14.3420    0.4060 S.3       1 <0>        -0.0649
     18 H1         47.0146   10.1951    2.7722 H         1 <0>         0.0633
     19 H2         46.9597   12.4304    3.8776 H         1 <0>         0.0626
     20 H3         45.8618    9.8723    0.6517 H         1 <0>         0.0830
     21 H4         47.2098   16.5996    2.7114 H         1 <0>         0.0627
     22 H5         48.0821   15.2943    3.5892 H         1 <0>         0.0627
@<TRIPOS>BOND
     1    1    2 ar
     2    1    3 ar
     3    2    5 ar
     4    3   11 ar
     5    4    9 1
     6    4   16 1
     7    5    6 1
     8    5    8 ar
     9    6    7 2
    10    6   16 1
    11    7   10 1
    12    7   17 1
    13    8   11 ar
    14    8   17 1
    15    9   12 1
    16    9   14 2
    17   10   13 1
    18   10   15 2
    19    1   18 1
    20    2   19 1
    21    3   20 1
    22    4   21 1
    23    4   22 1
