@<TRIPOS>MOLECULE
LGF_361_2QD9
   64    69     0     0     0
SMALL
USER_CHARGES

@<TRIPOS>ATOM
      1 C1          2.1800   -0.0500   23.9140 C.3       1 <0>         0.0447
      2 C2         -3.9000    1.3950   16.0670 C.ar      1 <0>        -0.0256
      3 C3         -3.1990    1.7070   17.1910 C.ar      1 <0>        -0.0458
      4 C4         -5.8630    0.5360   17.1740 C.ar      1 <0>         0.0095
      5 C5         -1.9510   -1.8190   25.9190 C.ar      1 <0>        -0.0344
      6 C6         -1.0250   -0.5800   29.2420 C.2       1 <0>         0.0068
      7 C7         -2.0610    2.3530   21.4570 C.2       1 <0>         0.0485
      8 C8         -5.8970   -3.7630   32.4010 C.3       1 <0>        -0.0095
      9 C9         -3.2270   -0.9140   20.4330 C.3       1 <0>         0.0342
     10 C10        -5.4650   -2.3350   31.9840 C.3       1 <0>         0.0176
     11 C11        -2.0920   -1.7360   21.0890 C.3       1 <0>         0.0315
     12 C12        -1.6440    0.2260   22.6970 C.3       1 <0>         0.0548
     13 C13        -3.6840   -3.8920   31.4860 C.3       1 <0>         0.0411
     14 C14        -5.1970    0.8110   16.0660 C.ar      1 <0>         0.1262
     15 C15        -3.8760    1.3600   18.4250 C.ar      1 <0>         0.0505
     16 C16        -1.3700   -1.2650   27.1320 C.ar      1 <0>         0.0281
     17 C17        -1.1390   -1.6720   24.8540 C.ar      1 <0>         0.0867
     18 C18        -5.1530    0.8710   18.3680 C.ar      1 <0>         0.1365
     19 C19        -1.9240   -1.2560   28.5060 C.2       1 <0>         0.0511
     20 C20        -2.2000    1.0350   21.6110 C.2       1 <0>         0.0477
     21 C21        -0.2310   -0.6320   27.1240 C.ar      1 <0>         0.1333
     22 C22         0.1860   -0.9190   24.9690 C.ar      1 <0>         0.1818
     23 C23        -3.2220    1.5840   19.7610 C.2       1 <0>         0.1354
     24 C24        -5.0400   -4.5980   31.4630 C.3       1 <0>         0.0724
     25 C25        -1.6310   -2.2060   23.4880 C.2       1 <0>         0.2511
     26 C26        -3.1870   -1.8730   29.0110 C.2       1 <0>         0.2493
     27 C27        -3.6340   -1.6020   30.4450 C.2       1 <0>         0.2871
     28 N1          0.0150   -0.2090   28.3880 N.pl3     1 <0>        -0.3045
     29 N2         -2.7010    2.6700   20.2160 N.2       1 <0>        -0.2377
     30 N3          0.5780   -0.4660   26.0620 N.ar      1 <0>        -0.2072
     31 N4         -2.8910    0.5150   20.6160 N.pl3     1 <0>        -0.2839
     32 N5         -1.9080   -1.1750   22.4590 N.am      1 <0>        -0.2903
     33 N6         -4.2140   -2.5750   31.2580 N.am      1 <0>        -0.2923
     34 O1         -5.5640   -4.6960   30.1400 O.3       1 <0>        -0.3902
     35 O2         -1.7520   -3.3570   23.1670 O.2       1 <0>        -0.2698
     36 O3         -3.8580   -2.6410   28.3010 O.2       1 <0>        -0.2817
     37 O4         -3.4460   -0.4910   30.9570 O.2       1 <0>        -0.2664
     38 O5          0.9070   -0.7750   23.8330 O.3       1 <0>        -0.3309
     39 F1         -5.7360    0.3790   14.9510 F         1 <0>        -0.2054
     40 F2         -5.7910    0.5110   19.5240 F         1 <0>        -0.2047
     41 H1          2.6468   -0.0154   22.9186 H         1 <0>         0.0529
     42 H2          1.9961    0.9750   24.2684 H         1 <0>         0.0529
     43 H3          2.8516   -0.5659   24.6160 H         1 <0>         0.0529
     44 H4         -3.4410    1.6048   15.1122 H         1 <0>         0.0646
     45 H5         -2.2245    2.1720   17.1659 H         1 <0>         0.0626
     46 H6         -6.8507    0.0993   17.1767 H         1 <0>         0.0675
     47 H7         -2.9205   -2.2930   25.8770 H         1 <0>         0.0633
     48 H8         -1.0944   -0.3640   30.2979 H         1 <0>         0.0789
     49 H9         -1.5676    3.0391   22.1295 H         1 <0>         0.0846
     50 H10        -5.6911   -3.9737   33.4608 H         1 <0>         0.0306
     51 H11        -6.9735   -3.9373   32.2568 H         1 <0>         0.0306
     52 H12        -3.3012   -1.1539   19.3620 H         1 <0>         0.0484
     53 H13        -4.1899   -1.1435   20.9127 H         1 <0>         0.0484
     54 H14        -6.2197   -1.8497   31.3476 H         1 <0>         0.0465
     55 H15        -5.3118   -1.6836   32.8570 H         1 <0>         0.0465
     56 H16        -2.3661   -2.8000   21.1410 H         1 <0>         0.0480
     57 H17        -1.1632   -1.6454   20.5066 H         1 <0>         0.0480
     58 H18        -0.5570    0.3865   22.7490 H         1 <0>         0.0527
     59 H19        -2.1089    0.5263   23.6476 H         1 <0>         0.0527
     60 H20        -3.1285   -4.0027   32.4290 H         1 <0>         0.0490
     61 H21        -2.9770   -4.2380   30.7176 H         1 <0>         0.0490
     62 H22        -4.9909   -5.6465   31.7919 H         1 <0>         0.0609
     63 H23         0.8291    0.2987   28.6698 H         1 <0>         0.1530
     64 H24        -4.9841   -5.2281   29.6079 H         1 <0>         0.2098
@<TRIPOS>BOND
     1    1   38 1
     2    2    3 ar
     3    2   14 ar
     4    3   15 ar
     5    4   14 ar
     6    4   18 ar
     7    5   16 ar
     8    5   17 ar
     9    6   19 2
    10    6   28 1
    11    7   20 2
    12    7   29 1
    13    8   10 1
    14    8   24 1
    15    9   11 1
    16    9   31 1
    17   10   33 1
    18   11   32 1
    19   12   20 1
    20   12   32 1
    21   13   24 1
    22   13   33 1
    23   14   39 1
    24   15   18 ar
    25   15   23 1
    26   16   19 1
    27   16   21 ar
    28   17   22 ar
    29   17   25 1
    30   18   40 1
    31   19   26 1
    32   20   31 1
    33   21   28 1
    34   21   30 ar
    35   22   30 ar
    36   22   38 1
    37   23   29 2
    38   23   31 1
    39   24   34 1
    40   25   32 am
    41   25   35 2
    42   26   27 1
    43   26   36 2
    44   27   33 am
    45   27   37 2
    46    1   41 1
    47    1   42 1
    48    1   43 1
    49    2   44 1
    50    3   45 1
    51    4   46 1
    52    5   47 1
    53    6   48 1
    54    7   49 1
    55    8   50 1
    56    8   51 1
    57    9   52 1
    58    9   53 1
    59   10   54 1
    60   10   55 1
    61   11   56 1
    62   11   57 1
    63   12   58 1
    64   12   59 1
    65   13   60 1
    66   13   61 1
    67   24   62 1
    68   28   63 1
    69   34   64 1
