@<TRIPOS>MOLECULE
ZK1_263_3KGC
   40    42     0     0     0
SMALL
USER_CHARGES

@<TRIPOS>ATOM
      1 C1          6.6740   34.7860   -1.2450 C.ar      1 <0>        -0.0252
      2 C2          7.3500   32.1330   -0.7670 C.ar      1 <0>        -0.0168
      3 C3          7.4710   31.7820    2.2510 C.3       1 <0>         0.0357
      4 C4          4.9970   31.6050    1.5510 C.3       1 <0>         0.0357
      5 C5          7.0110   31.4360    3.6730 C.3       1 <0>         0.0634
      6 C6          4.7430   31.1350    2.9910 C.3       1 <0>         0.0634
      7 C7          8.7990   30.5650   -2.7050 C.3       1 <0>         0.0479
      8 C8          6.3110   34.1920   -0.0270 C.ar      1 <0>         0.0776
      9 C9          7.3690   34.0550   -2.2110 C.ar      1 <0>         0.0561
     10 C10         7.7000   32.7250   -1.9830 C.ar      1 <0>         0.0601
     11 C11         6.6600   32.8520    0.2000 C.ar      1 <0>         0.0434
     12 C12         8.4210   33.9440   -4.3910 C.2       1 <0>         0.3037
     13 C13         8.7650   32.6040   -4.1710 C.2       1 <0>         0.3064
     14 C14         5.5900   35.0360    1.0310 C.3       1 <0>         0.4192
     15 N1          7.7370   34.6560   -3.4210 N.am      1 <0>        -0.2761
     16 N2          8.4080   31.9820   -2.9620 N.am      1 <0>        -0.2569
     17 N3          6.3570   32.1470    1.3680 N.pl3     1 <0>        -0.3250
     18 O1         10.0950   30.6710   -0.1780 O.3       1 <0>        -0.8117
     19 O2         10.8990   28.9740   -1.9370 O.3       1 <0>        -0.8117
     20 O3          8.7130   34.4980   -5.4500 O.2       1 <0>        -0.2648
     21 O4          9.3540   31.9580   -5.0410 O.2       1 <0>        -0.2646
     22 O5         11.3540   31.4920   -2.2280 O.2       1 <0>        -0.3519
     23 O6          5.9190   30.5020    3.5360 O.3       1 <0>        -0.3767
     24 F1          6.4240   35.2010    2.0650 F         1 <0>        -0.1658
     25 F2          5.3180   36.2190    0.4970 F         1 <0>        -0.1658
     26 F3          4.4930   34.4630    1.4630 F         1 <0>        -0.1658
     27 P1         10.4120   30.4730   -1.7570 P.3       1 <0>        -0.0482
     28 H1          6.4140   35.8165   -1.4371 H         1 <0>         0.0643
     29 H2          7.6191   31.1045   -0.5769 H         1 <0>         0.0655
     30 H3          8.1630   32.6352    2.3078 H         1 <0>         0.0486
     31 H4          7.9772   30.9026    1.8261 H         1 <0>         0.0486
     32 H5          4.8697   30.7460    0.8758 H         1 <0>         0.0486
     33 H6          4.2708   32.3948    1.3083 H         1 <0>         0.0486
     34 H7          7.8349   30.9832    4.2441 H         1 <0>         0.0575
     35 H8          6.6781   32.3420    4.2005 H         1 <0>         0.0575
     36 H9          4.4827   32.0048    3.6121 H         1 <0>         0.0575
     37 H10         3.9132   30.4129    2.9921 H         1 <0>         0.0575
     38 H11         8.0092   30.0782   -2.1140 H         1 <0>         0.0525
     39 H12         8.9209   30.0479   -3.6682 H         1 <0>         0.0525
     40 H13         7.5021   35.6138   -3.5868 H         1 <0>         0.1553
@<TRIPOS>BOND
     1    1    8 ar
     2    1    9 ar
     3    2   10 ar
     4    2   11 ar
     5    3    5 1
     6    3   17 1
     7    4    6 1
     8    4   17 1
     9    5   23 1
    10    6   23 1
    11    7   16 1
    12    7   27 1
    13    8   11 ar
    14    8   14 1
    15    9   10 ar
    16    9   15 1
    17   10   16 1
    18   11   17 1
    19   12   13 1
    20   12   15 am
    21   12   20 2
    22   13   16 am
    23   13   21 2
    24   14   24 1
    25   14   25 1
    26   14   26 1
    27   18   27 1
    28   19   27 1
    29   22   27 2
    30    1   28 1
    31    2   29 1
    32    3   30 1
    33    3   31 1
    34    4   32 1
    35    4   33 1
    36    5   34 1
    37    5   35 1
    38    6   36 1
    39    6   37 1
    40    7   38 1
    41    7   39 1
    42   15   40 1
