@<TRIPOS>MOLECULE
RIT_600_3NXU
   96    99     0     0     0
SMALL
USER_CHARGES

@<TRIPOS>ATOM
      1 C1         36.5430   -8.3010   36.1470 C.3       1 <0>        -0.0567
      2 C2         37.8340   -8.9230   34.1240 C.3       1 <0>        -0.0567
      3 C3         38.0390  -13.1510   33.0400 C.3       1 <0>        -0.0605
      4 C4         39.1580  -14.5290   31.0500 C.3       1 <0>        -0.0605
      5 C5         32.6190  -10.8720   31.3980 C.3       1 <0>         0.0050
      6 C6         42.0880  -20.8920   29.6360 C.ar      1 <0>        -0.0617
      7 C7         31.7620  -16.0070   29.4150 C.ar      1 <0>        -0.0617
      8 C8         41.1020  -20.0690   30.3700 C.ar      1 <0>        -0.0615
      9 C9         42.7580  -20.3590   28.3830 C.ar      1 <0>        -0.0615
     10 C10        32.1480  -14.6710   28.8600 C.ar      1 <0>        -0.0615
     11 C11        32.4610  -17.2540   28.9850 C.ar      1 <0>        -0.0615
     12 C12        40.7910  -18.7080   29.8500 C.ar      1 <0>        -0.0585
     13 C13        42.4530  -19.0150   27.8590 C.ar      1 <0>        -0.0585
     14 C14        33.2850  -14.5360   27.8570 C.ar      1 <0>        -0.0582
     15 C15        33.5710  -17.1400   27.9970 C.ar      1 <0>        -0.0582
     16 C16        35.4590  -21.3130   25.2050 C.2       1 <0>         0.0401
     17 C17        34.9470  -12.9850   35.2120 C.2       1 <0>         0.0002
     18 C18        33.7050  -20.9540   26.6040 C.2       1 <0>         0.0650
     19 C19        41.0920  -16.8500   28.1340 C.3       1 <0>        -0.0064
     20 C20        35.1130  -15.7470   26.5650 C.3       1 <0>         0.0105
     21 C21        33.3150  -12.5050   33.3500 C.3       1 <0>         0.0585
     22 C22        37.3240  -20.9920   26.5970 C.3       1 <0>         0.0912
     23 C23        37.5930  -15.9730   26.9140 C.2       1 <0>        -0.0367
     24 C24        41.4860  -18.1910   28.5690 C.ar      1 <0>        -0.0455
     25 C25        33.9730  -15.7500   27.4450 C.ar      1 <0>        -0.0419
     26 C26        36.1420  -21.1130   26.1970 C.2       1 <0>         0.0354
     27 C27        34.4510  -12.1430   34.2920 C.2       1 <0>         0.0660
     28 C28        35.9180  -10.5120   34.9280 C.2       1 <0>         0.0812
     29 C29        36.4970   -9.0150   34.8320 C.3       1 <0>         0.0021
     30 C30        37.9340  -13.6100   31.5300 C.3       1 <0>        -0.0197
     31 C31        39.6280  -16.9330   27.5400 C.3       1 <0>         0.0587
     32 C32        38.9760  -15.5730   27.4740 C.3       1 <0>         0.0937
     33 C33        36.4750  -13.6980   30.6960 C.3       1 <0>         0.1034
     34 C34        36.4710  -15.6090   27.5160 C.2       1 <0>         0.0134
     35 C35        36.2120  -14.8980   29.9860 C.2       1 <0>         0.2376
     36 C36        34.6500  -12.3500   31.1130 C.2       1 <0>         0.3029
     37 C37        38.5630  -19.0920   26.7600 C.2       1 <0>         0.3529
     38 N1         34.1460  -21.2460   25.4000 N.2       1 <0>        -0.2554
     39 N2         34.9860  -10.9290   34.2000 N.2       1 <0>        -0.2471
     40 N3         39.2740  -17.9540   26.3690 N.am      1 <0>        -0.2854
     41 N4         35.6150  -13.3900   31.6320 N.am      1 <0>        -0.2877
     42 N5         36.6790  -14.7080   28.6930 N.am      1 <0>        -0.2875
     43 N6         33.5590  -11.9010   31.9300 N.am      1 <0>        -0.2829
     44 O1         39.7120  -14.8430   26.3070 O.3       1 <0>        -0.3859
     45 O2         35.4830  -15.7970   30.3250 O.2       1 <0>        -0.2734
     46 O3         34.8200  -11.8520   29.8490 O.2       1 <0>        -0.2526
     47 O4         38.2630  -19.2700   28.1460 O.2       1 <0>        -0.2413
     48 O5         37.9540  -19.8720   25.8940 O.3       1 <0>        -0.2946
     49 S1         36.2150  -11.9220   35.9190 S.3       1 <0>        -0.0800
     50 S2         35.0550  -20.7640   27.4330 S.3       1 <0>        -0.0781
     51 H1         35.5641   -8.3805   36.6424 H         1 <0>         0.0236
     52 H2         37.3147   -8.7569   36.7848 H         1 <0>         0.0236
     53 H3         36.7843   -7.2408   35.9802 H         1 <0>         0.0236
     54 H4         37.7773   -9.4534   33.1620 H         1 <0>         0.0236
     55 H5         38.0824   -7.8663   33.9458 H         1 <0>         0.0236
     56 H6         38.6128   -9.3824   34.7504 H         1 <0>         0.0236
     57 H7         37.1694  -12.5277   33.2956 H         1 <0>         0.0233
     58 H8         38.0592  -14.0369   33.6918 H         1 <0>         0.0233
     59 H9         38.9616  -12.5693   33.1829 H         1 <0>         0.0233
     60 H10        39.0164  -14.8076   29.9953 H         1 <0>         0.0233
     61 H11        40.0998  -13.9710   31.1584 H         1 <0>         0.0233
     62 H12        39.1974  -15.4386   31.6673 H         1 <0>         0.0233
     63 H13        32.9433  -10.5628   30.3934 H         1 <0>         0.0429
     64 H14        31.6054  -11.2957   31.3417 H         1 <0>         0.0429
     65 H15        32.6149   -9.9987   32.0668 H         1 <0>         0.0429
     66 H16        42.3332  -21.8807   29.9949 H         1 <0>         0.0618
     67 H17        30.9635  -16.0696   30.1395 H         1 <0>         0.0618
     68 H18        40.6199  -20.4452   31.2602 H         1 <0>         0.0618
     69 H19        43.4743  -20.9781   27.8634 H         1 <0>         0.0618
     70 H20        31.6111  -13.7890   29.1764 H         1 <0>         0.0618
     71 H21        32.1693  -18.2158   29.3804 H         1 <0>         0.0618
     72 H22        40.0796  -18.0820   30.3681 H         1 <0>         0.0620
     73 H23        42.9376  -18.6492   26.9659 H         1 <0>         0.0620
     74 H24        33.5714  -13.5715   27.4644 H         1 <0>         0.0620
     75 H25        34.0941  -18.0252   27.6666 H         1 <0>         0.0620
     76 H26        35.8906  -21.5288   24.2388 H         1 <0>         0.0838
     77 H27        34.6679  -13.9995   35.4556 H         1 <0>         0.0712
     78 H28        32.6845  -20.8651   26.9461 H         1 <0>         0.0907
     79 H29        41.1102  -16.1586   28.9894 H         1 <0>         0.0332
     80 H30        41.7883  -16.4867   27.3639 H         1 <0>         0.0332
     81 H31        35.1482  -16.6814   25.9856 H         1 <0>         0.0374
     82 H32        35.0511  -14.9001   25.8658 H         1 <0>         0.0374
     83 H33        33.2518  -13.6001   33.2682 H         1 <0>         0.0530
     84 H34        32.3731  -12.1048   33.7532 H         1 <0>         0.0530
     85 H35        37.3294  -20.7984   27.6798 H         1 <0>         0.0622
     86 H36        37.8805  -21.9180   26.3900 H         1 <0>         0.0622
     87 H37        37.5399  -16.5630   26.0109 H         1 <0>         0.0613
     88 H38        35.7608   -8.4911   34.2047 H         1 <0>         0.0364
     89 H39        38.0447  -12.6223   31.0587 H         1 <0>         0.0318
     90 H40        39.1115  -17.5281   28.3075 H         1 <0>         0.0531
     91 H41        38.9690  -14.9742   28.3967 H         1 <0>         0.0657
     92 H42        36.4457  -13.0191   29.8310 H         1 <0>         0.0598
     93 H43        39.5422  -17.7917   25.4194 H         1 <0>         0.1514
     94 H44        35.5987  -13.7831   32.5513 H         1 <0>         0.1510
     95 H45        37.2129  -13.8783   28.5298 H         1 <0>         0.1546
     96 H46        40.5753  -14.5722   26.5967 H         1 <0>         0.2103
@<TRIPOS>BOND
     1    1   29 1
     2    2   29 1
     3    3   30 1
     4    4   30 1
     5    5   43 1
     6    6    8 ar
     7    6    9 ar
     8    7   10 ar
     9    7   11 ar
    10    8   12 ar
    11    9   13 ar
    12   10   14 ar
    13   11   15 ar
    14   12   24 ar
    15   13   24 ar
    16   14   25 ar
    17   15   25 ar
    18   16   26 2
    19   16   38 1
    20   17   27 2
    21   17   49 1
    22   18   38 2
    23   18   50 1
    24   19   24 1
    25   19   31 1
    26   20   25 1
    27   20   34 1
    28   21   27 1
    29   21   43 1
    30   22   26 1
    31   22   48 1
    32   23   32 1
    33   23   34 2
    34   26   50 1
    35   27   39 1
    36   28   29 1
    37   28   39 2
    38   28   49 1
    39   30   33 1
    40   31   32 1
    41   31   40 1
    42   32   44 1
    43   33   35 1
    44   33   41 1
    45   34   42 1
    46   35   42 am
    47   35   45 2
    48   36   41 am
    49   36   43 am
    50   36   46 2
    51   37   40 am
    52   37   47 2
    53   37   48 1
    54    1   51 1
    55    1   52 1
    56    1   53 1
    57    2   54 1
    58    2   55 1
    59    2   56 1
    60    3   57 1
    61    3   58 1
    62    3   59 1
    63    4   60 1
    64    4   61 1
    65    4   62 1
    66    5   63 1
    67    5   64 1
    68    5   65 1
    69    6   66 1
    70    7   67 1
    71    8   68 1
    72    9   69 1
    73   10   70 1
    74   11   71 1
    75   12   72 1
    76   13   73 1
    77   14   74 1
    78   15   75 1
    79   16   76 1
    80   17   77 1
    81   18   78 1
    82   19   79 1
    83   19   80 1
    84   20   81 1
    85   20   82 1
    86   21   83 1
    87   21   84 1
    88   22   85 1
    89   22   86 1
    90   23   87 1
    91   29   88 1
    92   30   89 1
    93   31   90 1
    94   32   91 1
    95   33   92 1
    96   40   93 1
    97   41   94 1
    98   42   95 1
    99   44   96 1
