@<TRIPOS>MOLECULE
46C_901_2ZDT
   51    54     0     0     0
SMALL
USER_CHARGES

@<TRIPOS>ATOM
      1 C1         50.9310    8.0740   29.1850 C.3       1 <0>        -0.0582
      2 C2         49.2700   12.5050   30.4110 C.ar      1 <0>        -0.0617
      3 C3         49.3750   11.8700   31.7400 C.ar      1 <0>        -0.0612
      4 C4         48.3910   11.9240   29.3760 C.ar      1 <0>        -0.0612
      5 C5         48.5990   10.6600   32.0400 C.ar      1 <0>        -0.0540
      6 C6         47.6100   10.7100   29.6630 C.ar      1 <0>        -0.0540
      7 C7         47.7190    3.9370   32.1980 C.ar      1 <0>        -0.0564
      8 C8         49.2630    4.4360   30.2040 C.ar      1 <0>        -0.0564
      9 C9         48.8160    3.2610   32.8770 C.ar      1 <0>        -0.0526
     10 C10        50.3710    3.7490   30.8860 C.ar      1 <0>        -0.0526
     11 C11        43.3960    9.0110   33.8360 C.ar      1 <0>        -0.0426
     12 C12        43.7810    7.7660   33.1860 C.ar      1 <0>        -0.0477
     13 C13        45.4310   10.2140   32.8130 C.ar      1 <0>        -0.0349
     14 C14        49.8970    7.9610   30.2860 C.3       1 <0>         0.0089
     15 C15        46.8430    5.2350   30.2080 C.3       1 <0>         0.0452
     16 C16        47.9650    4.5110   30.8820 C.ar      1 <0>        -0.0297
     17 C17        47.7340   10.1060   30.9950 C.ar      1 <0>        -0.0154
     18 C18        50.1170    3.1750   32.2150 C.ar      1 <0>        -0.0027
     19 C19        44.2220   10.2100   33.6400 C.ar      1 <0>         0.0416
     20 C20        44.9900    7.7840   32.3550 C.ar      1 <0>         0.0451
     21 C21        45.7950    8.9730   32.1710 C.ar      1 <0>        -0.0019
     22 C22        46.9530    8.9150   31.2900 C.2       1 <0>         0.0149
     23 C23        47.2990    7.6610   30.6710 C.2       1 <0>         0.0878
     24 C24        45.3870    6.5400   31.6110 C.2       1 <0>         0.2518
     25 C25        48.5160    7.5860   29.7570 C.2       1 <0>         0.1777
     26 C26        51.2370    2.4550   32.9530 C.2       1 <0>         0.0717
     27 N1         46.4940    6.5070   30.8710 N.am      1 <0>        -0.2595
     28 O1         50.9340    1.6910   33.9090 O.co2     1 <0>        -0.5446
     29 O2         44.6710    5.5460   31.6800 O.2       1 <0>        -0.2696
     30 O3         48.3610    7.2010   28.5990 O.2       1 <0>        -0.2907
     31 O4         52.4030    2.6410   32.6110 O.co2     1 <0>        -0.5446
     32 Cl1        43.7890   11.6300   34.3890 Cl        1 <0>        -0.0835
     33 H1         51.9037    8.3453   29.6212 H         1 <0>         0.0234
     34 H2         51.0191    7.1090   28.6645 H         1 <0>         0.0234
     35 H3         50.6211    8.8498   28.4694 H         1 <0>         0.0234
     36 H4         49.8381   13.3977   30.1950 H         1 <0>         0.0618
     37 H5         50.0229   12.2958   32.4919 H         1 <0>         0.0618
     38 H6         48.3211   12.3917   28.4050 H         1 <0>         0.0618
     39 H7         48.6644   10.1887   33.0096 H         1 <0>         0.0624
     40 H8         46.9638   10.2758   28.9145 H         1 <0>         0.0624
     41 H9         46.7455    4.0110   32.6597 H         1 <0>         0.0621
     42 H10        49.4024    4.8747   29.2270 H         1 <0>         0.0621
     43 H11        48.6705    2.8291   33.8561 H         1 <0>         0.0624
     44 H12        51.3435    3.6688   30.4231 H         1 <0>         0.0624
     45 H13        42.5124    9.0525   34.4557 H         1 <0>         0.0632
     46 H14        43.1993    6.8646   33.3108 H         1 <0>         0.0626
     47 H15        46.0250   11.1074   32.6887 H         1 <0>         0.0638
     48 H16        50.2230    7.1820   30.9909 H         1 <0>         0.0343
     49 H17        49.8225    8.9335   30.7946 H         1 <0>         0.0343
     50 H18        47.1469    5.4566   29.1743 H         1 <0>         0.0518
     51 H19        45.9559    4.5847   30.2202 H         1 <0>         0.0518
@<TRIPOS>BOND
     1    1   14 1
     2    2    3 ar
     3    2    4 ar
     4    3    5 ar
     5    4    6 ar
     6    5   17 ar
     7    6   17 ar
     8    7    9 ar
     9    7   16 ar
    10    8   10 ar
    11    8   16 ar
    12    9   18 ar
    13   10   18 ar
    14   11   12 ar
    15   11   19 ar
    16   12   20 ar
    17   13   19 ar
    18   13   21 ar
    19   14   25 1
    20   15   16 1
    21   15   27 1
    22   17   22 1
    23   18   26 1
    24   19   32 1
    25   20   21 ar
    26   20   24 1
    27   21   22 1
    28   22   23 2
    29   23   25 1
    30   23   27 1
    31   24   27 am
    32   24   29 2
    33   25   30 2
    34   26   28 1
    35   26   31 2
    36    1   33 1
    37    1   34 1
    38    1   35 1
    39    2   36 1
    40    3   37 1
    41    4   38 1
    42    5   39 1
    43    6   40 1
    44    7   41 1
    45    8   42 1
    46    9   43 1
    47   10   44 1
    48   11   45 1
    49   12   46 1
    50   13   47 1
    51   14   48 1
    52   14   49 1
    53   15   50 1
    54   15   51 1
