@<TRIPOS>MOLECULE
208_A1001_2GTK
   53    56     0     0     0
SMALL
USER_CHARGES

@<TRIPOS>ATOM
      1 C1          0.2960   28.7680   15.4750 C.3       1 <0>        -0.0415
      2 C2          7.6300   26.3670   15.8900 C.3       1 <0>        -0.0156
      3 C3          5.2930   19.5900   14.2990 C.ar      1 <0>        -0.0610
      4 C4          5.5110   19.6080   12.9190 C.ar      1 <0>        -0.0603
      5 C5          5.6210   20.6950   15.0690 C.ar      1 <0>        -0.0492
      6 C6          6.0550   20.7330   12.3140 C.ar      1 <0>        -0.0427
      7 C7          3.2640   27.2670   19.0130 C.ar      1 <0>        -0.0567
      8 C8          4.4370   26.5740   18.7580 C.ar      1 <0>        -0.0395
      9 C9          3.9450   23.3650   20.3950 C.2       1 <0>        -0.0388
     10 C10         5.2050   23.1970   19.9190 C.2       1 <0>        -0.0022
     11 C11         2.3360   25.3940   20.2620 C.ar      1 <0>        -0.0495
     12 C12        -0.1200   27.8040   16.5870 C.3       1 <0>         0.0457
     13 C13         0.9770   27.4680   20.0680 C.3       1 <0>         0.0040
     14 C14         6.9290   24.5960   18.5960 C.3       1 <0>         0.0612
     15 C15         7.1540   24.9540   16.0390 C.2       1 <0>         0.0820
     16 C16         2.2210   26.6840   19.7700 C.ar      1 <0>        -0.0439
     17 C17         3.5190   24.6780   20.0120 C.ar      1 <0>        -0.0022
     18 C18         6.1750   21.8420   14.4770 C.ar      1 <0>         0.0428
     19 C19         4.5360   25.2810   19.2860 C.ar      1 <0>         0.0411
     20 C20         6.3860   21.8500   13.0830 C.ar      1 <0>         0.0521
     21 C21         6.8700   24.2440   17.1430 C.2       1 <0>         0.0876
     22 C22         6.5170   22.9690   15.3210 C.2       1 <0>         0.1818
     23 C23        -0.0240   27.4050   18.9110 C.3       1 <0>         0.1016
     24 C24        -1.3820   27.8110   19.4020 C.2       1 <0>         0.0707
     25 N1          6.4580   22.9710   16.6950 N.2       1 <0>        -0.2237
     26 N2          5.6220   24.3690   19.2270 N.pl3     1 <0>        -0.3000
     27 O1         -1.7210   29.0300   19.3250 O.co2     1 <0>        -0.5471
     28 O2         -2.1170   26.9220   19.9260 O.co2     1 <0>        -0.5471
     29 O3          6.9430   24.1820   14.9140 O.3       1 <0>        -0.2931
     30 O4          0.3980   28.2430   17.8380 O.3       1 <0>        -0.3707
     31 Cl1         7.0720   23.2420   12.2750 Cl        1 <0>        -0.0828
     32 H1         -0.1102   28.4179   14.5146 H         1 <0>         0.0252
     33 H2         -0.0962   29.7720   15.6946 H         1 <0>         0.0252
     34 H3          1.3937   28.8077   15.4161 H         1 <0>         0.0252
     35 H4          7.7518   26.6028   14.8225 H         1 <0>         0.0298
     36 H5          6.8922   27.0511   16.3345 H         1 <0>         0.0298
     37 H6          8.5955   26.4846   16.4038 H         1 <0>         0.0298
     38 H7          4.8683   18.7139   14.7664 H         1 <0>         0.0618
     39 H8          5.2558   18.7451   12.3218 H         1 <0>         0.0618
     40 H9          5.4488   20.6738   16.1350 H         1 <0>         0.0625
     41 H10         6.2223   20.7439   11.2471 H         1 <0>         0.0632
     42 H11         3.1444   28.2687   18.6273 H         1 <0>         0.0621
     43 H12         5.2372   27.0110   18.1791 H         1 <0>         0.0636
     44 H13         3.3709   22.6436   20.9574 H         1 <0>         0.0637
     45 H14         5.8025   22.3064   20.0464 H         1 <0>         0.0784
     46 H15         1.5315   24.9470   20.8271 H         1 <0>         0.0627
     47 H16        -1.2180   27.7673   16.6425 H         1 <0>         0.0557
     48 H17         0.2741   26.8016   16.3635 H         1 <0>         0.0557
     49 H18         0.5030   27.0494   20.9681 H         1 <0>         0.0342
     50 H19         1.2542   28.5188   20.2382 H         1 <0>         0.0342
     51 H20         7.6840   23.9672   19.0906 H         1 <0>         0.0533
     52 H21         7.2025   25.6563   18.7009 H         1 <0>         0.0533
     53 H22        -0.0750   26.3734   18.5325 H         1 <0>         0.0661
@<TRIPOS>BOND
     1    1   12 1
     2    2   15 1
     3    3    4 ar
     4    3    5 ar
     5    4    6 ar
     6    5   18 ar
     7    6   20 ar
     8    7    8 ar
     9    7   16 ar
    10    8   19 ar
    11    9   10 2
    12    9   17 1
    13   10   26 1
    14   11   16 ar
    15   11   17 ar
    16   12   30 1
    17   13   16 1
    18   13   23 1
    19   14   21 1
    20   14   26 1
    21   15   21 2
    22   15   29 1
    23   17   19 ar
    24   18   20 ar
    25   18   22 1
    26   19   26 1
    27   20   31 1
    28   21   25 1
    29   22   25 2
    30   22   29 1
    31   23   24 1
    32   23   30 1
    33   24   27 1
    34   24   28 2
    35    1   32 1
    36    1   33 1
    37    1   34 1
    38    2   35 1
    39    2   36 1
    40    2   37 1
    41    3   38 1
    42    4   39 1
    43    5   40 1
    44    6   41 1
    45    7   42 1
    46    8   43 1
    47    9   44 1
    48   10   45 1
    49   11   46 1
    50   12   47 1
    51   12   48 1
    52   13   49 1
    53   13   50 1
    54   14   51 1
    55   14   52 1
    56   23   53 1
