@<TRIPOS>MOLECULE
Y27_416_2ETR
   40    41     0     0     0
SMALL
USER_CHARGES

@<TRIPOS>ATOM
      1 C1         54.6740  103.0980   34.0250 C.3       1 <0>        -0.0215
      2 C2         51.0210   98.2460   27.4780 C.ar      1 <0>        -0.0223
      3 C3         50.4320  100.3340   26.4560 C.ar      1 <0>        -0.0223
      4 C4         50.6360   97.5930   26.3080 C.ar      1 <0>         0.0293
      5 C5         50.0570   99.6300   25.3100 C.ar      1 <0>         0.0293
      6 C6         51.8370  102.8340   32.6670 C.3       1 <0>        -0.0444
      7 C7         53.7390  103.4220   31.1040 C.3       1 <0>        -0.0444
      8 C8         50.9950  102.4390   31.4520 C.3       1 <0>        -0.0415
      9 C9         52.8670  103.0170   29.9120 C.3       1 <0>        -0.0415
     10 C10        50.9190   99.6340   27.5640 C.ar      1 <0>         0.0363
     11 C11        52.9100  103.8740   32.3170 C.3       1 <0>         0.0017
     12 C12        51.8760  101.9220   30.3110 C.3       1 <0>         0.0359
     13 C13        53.7690  104.2330   33.5400 C.3       1 <0>        -0.0244
     14 C14        51.0510  101.4790   29.1290 C.2       1 <0>         0.2203
     15 N1         54.5870  105.3960   33.2510 N.4       1 <0>         0.2207
     16 N2         50.1660   98.2910   25.2620 N.ar      1 <0>        -0.2631
     17 N3         51.3120  100.2310   28.7210 N.am      1 <0>        -0.2852
     18 O1         50.2210  102.2230   28.6230 O.2       1 <0>        -0.2752
     19 H1         55.2512  103.4362   34.8982 H         1 <0>         0.0284
     20 H2         54.0569  102.2321   34.3066 H         1 <0>         0.0284
     21 H3         55.3644  102.8097   33.2186 H         1 <0>         0.0284
     22 H4         51.3974   97.6781   28.3159 H         1 <0>         0.0651
     23 H5         50.3466  101.4102   26.4863 H         1 <0>         0.0651
     24 H6         50.7164   96.5180   26.2426 H         1 <0>         0.0830
     25 H7         49.6756  100.1665   24.4538 H         1 <0>         0.0830
     26 H8         51.1707  103.2618   33.4305 H         1 <0>         0.0270
     27 H9         52.3356  101.9336   33.0550 H         1 <0>         0.0270
     28 H10        54.3460  102.5543   31.4015 H         1 <0>         0.0270
     29 H11        54.3856  104.2563   30.7943 H         1 <0>         0.0270
     30 H12        50.2934  101.6452   31.7479 H         1 <0>         0.0273
     31 H13        50.4398  103.3215   31.1014 H         1 <0>         0.0273
     32 H14        52.3074  103.8968   29.5616 H         1 <0>         0.0273
     33 H15        53.5138  102.6392   29.1064 H         1 <0>         0.0273
     34 H16        52.4062  104.8059   32.0208 H         1 <0>         0.0355
     35 H17        52.4287  101.0373   30.6600 H         1 <0>         0.0394
     36 H18        53.0557  104.4407   34.3512 H         1 <0>         0.0850
     37 H19        54.0039  106.1436   32.9331 H         1 <0>         0.1997
     38 H20        55.0688  105.6789   34.0804 H         1 <0>         0.1997
     39 H21        55.2523  105.1671   32.5404 H         1 <0>         0.1997
     40 H22        51.8615   99.6709   29.3409 H         1 <0>         0.1548
@<TRIPOS>BOND
     1    1   13 1
     2    2    4 ar
     3    2   10 ar
     4    3    5 ar
     5    3   10 ar
     6    4   16 ar
     7    5   16 ar
     8    6    8 1
     9    6   11 1
    10    7    9 1
    11    7   11 1
    12    8   12 1
    13    9   12 1
    14   10   17 1
    15   11   13 1
    16   12   14 1
    17   13   15 1
    18   14   17 am
    19   14   18 2
    20    1   19 1
    21    1   20 1
    22    1   21 1
    23    2   22 1
    24    3   23 1
    25    4   24 1
    26    5   25 1
    27    6   26 1
    28    6   27 1
    29    7   28 1
    30    7   29 1
    31    8   30 1
    32    8   31 1
    33    9   32 1
    34    9   33 1
    35   11   34 1
    36   12   35 1
    37   13   36 1
    38   15   37 1
    39   15   38 1
    40   15   39 1
    41   17   40 1
