@<TRIPOS>MOLECULE
608_501_2P2I
   50    53     0     0     0
SMALL
USER_CHARGES

@<TRIPOS>ATOM
      1 C1         38.3180   44.4460   10.7820 C.ar      1 <0>        -0.0616
      2 C2         39.1060   43.8750   11.8670 C.ar      1 <0>        -0.0593
      3 C3         37.8980   43.7040    9.5990 C.ar      1 <0>        -0.0593
      4 C4         34.4750   32.3620   12.5770 C.ar      1 <0>        -0.0427
      5 C5         39.4850   42.4880   11.7400 C.ar      1 <0>        -0.0312
      6 C6         38.2810   42.3120    9.4800 C.ar      1 <0>        -0.0312
      7 C7         35.3090   33.5010   12.3840 C.ar      1 <0>        -0.0449
      8 C8         38.4520   36.8620   10.6480 C.ar      1 <0>        -0.0380
      9 C9         37.2160   38.1350   12.5220 C.ar      1 <0>        -0.0380
     10 C10        39.0830   38.0740   10.2210 C.ar      1 <0>        -0.0294
     11 C11        37.8490   39.3560   12.0980 C.ar      1 <0>        -0.0294
     12 C12        39.9310   28.7730   14.1930 C.ar      1 <0>        -0.0389
     13 C13        39.4910   30.1940   12.0660 C.ar      1 <0>        -0.0389
     14 C14        35.0560   31.2070   13.1990 C.ar      1 <0>         0.0297
     15 C15        40.3810   27.7150   13.3640 C.ar      1 <0>         0.0279
     16 C16        39.9550   29.0860   11.2910 C.ar      1 <0>         0.0279
     17 C17        39.0620   31.1190   14.4470 C.3       1 <0>         0.0358
     18 C18        39.5020   29.9880   13.5080 C.ar      1 <0>        -0.0275
     19 C19        37.5400   36.9260   11.7810 C.ar      1 <0>         0.0338
     20 C20        39.0680   41.7400   10.5530 C.ar      1 <0>         0.0831
     21 C21        38.7700   39.2990   10.9530 C.ar      1 <0>         0.0832
     22 C22        36.6970   33.5070   12.7930 C.ar      1 <0>         0.0767
     23 C23        37.1910   32.3220   13.4080 C.ar      1 <0>         0.1311
     24 C24        37.5690   34.6710   12.5260 C.2       1 <0>         0.2516
     25 N1         40.3640   27.9400   11.9980 N.ar      1 <0>        -0.2632
     26 N2         36.3690   31.2060   13.5950 N.ar      1 <0>        -0.2397
     27 N3         38.4940   32.2980   13.8100 N.pl3     1 <0>        -0.3244
     28 N4         36.9230   35.8070   12.2220 N.am      1 <0>        -0.2814
     29 O1         38.7950   34.6450   12.5520 O.2       1 <0>        -0.2697
     30 O2         39.4620   40.4250   10.4230 O.3       1 <0>        -0.3093
     31 H1         38.0270   45.4832   10.8589 H         1 <0>         0.0618
     32 H2         39.3931   44.4626   12.7265 H         1 <0>         0.0618
     33 H3         37.3133   44.1825    8.8273 H         1 <0>         0.0618
     34 H4         33.4408   32.3679   12.2657 H         1 <0>         0.0633
     35 H5         40.0691   42.0081   12.5113 H         1 <0>         0.0643
     36 H6         37.9905   41.7226    8.6229 H         1 <0>         0.0643
     37 H7         34.8941   34.3836   11.9200 H         1 <0>         0.0627
     38 H8         38.6469   35.9269   10.1440 H         1 <0>         0.0637
     39 H9         36.5293   38.1172   13.3554 H         1 <0>         0.0637
     40 H10        39.7675   38.0825    9.3857 H         1 <0>         0.0644
     41 H11        37.6530   40.2883   12.6067 H         1 <0>         0.0644
     42 H12        39.9070   28.6850   15.2691 H         1 <0>         0.0636
     43 H13        39.1566   31.1167   11.6152 H         1 <0>         0.0636
     44 H14        34.4511   30.3264   13.3575 H         1 <0>         0.0830
     45 H15        40.7211   26.7775   13.7784 H         1 <0>         0.0829
     46 H16        39.9901   29.1265   10.2123 H         1 <0>         0.0829
     47 H17        38.2932   30.7071   15.1173 H         1 <0>         0.0511
     48 H18        39.9519   31.4455   15.0051 H         1 <0>         0.0511
     49 H19        38.5867   33.0381   14.4761 H         1 <0>         0.1478
     50 H20        35.9288   35.8270   12.3276 H         1 <0>         0.1551
@<TRIPOS>BOND
     1    1    2 ar
     2    1    3 ar
     3    2    5 ar
     4    3    6 ar
     5    4    7 ar
     6    4   14 ar
     7    5   20 ar
     8    6   20 ar
     9    7   22 ar
    10    8   10 ar
    11    8   19 ar
    12    9   11 ar
    13    9   19 ar
    14   10   21 ar
    15   11   21 ar
    16   12   15 ar
    17   12   18 ar
    18   13   16 ar
    19   13   18 ar
    20   14   26 ar
    21   15   25 ar
    22   16   25 ar
    23   17   18 1
    24   17   27 1
    25   19   28 1
    26   20   30 1
    27   21   30 1
    28   22   23 ar
    29   22   24 1
    30   23   26 ar
    31   23   27 1
    32   24   28 am
    33   24   29 2
    34    1   31 1
    35    2   32 1
    36    3   33 1
    37    4   34 1
    38    5   35 1
    39    6   36 1
    40    7   37 1
    41    8   38 1
    42    9   39 1
    43   10   40 1
    44   11   41 1
    45   12   42 1
    46   13   43 1
    47   14   44 1
    48   15   45 1
    49   16   46 1
    50   17   47 1
    51   17   48 1
    52   27   49 1
    53   28   50 1
