@<TRIPOS>MOLECULE
ZOL_901_1ZW5
   22    22     0     0     0
SMALL
USER_CHARGES

@<TRIPOS>ATOM
      1 C1         14.5700   29.6330   -8.4590 C.2       1 <0>         0.0430
      2 C2         15.1240   30.5850   -7.6440 C.2       1 <0>         0.0158
      3 C3         13.7130   31.5570   -8.9780 C.2       1 <0>         0.0878
      4 C4         14.9210   33.0430   -7.3350 C.3       1 <0>         0.0556
      5 C5         14.9540   34.2900   -8.2760 C.3       1 <0>         0.1341
      6 N1         13.7180   30.2550   -9.2930 N.2       1 <0>        -0.2466
      7 N2         14.5910   31.7640   -7.9840 N.pl3     1 <0>        -0.2926
      8 O1         13.6410   34.5000   -8.7870 O.3       1 <0>        -0.3768
      9 O2         14.4650   35.6890   -5.9680 O.3       1 <0>        -0.8106
     10 O3         16.8340   35.6120   -6.7370 O.3       1 <0>        -0.8106
     11 O4         16.0430   35.5460  -10.3420 O.3       1 <0>        -0.8106
     12 O5         16.0210   33.0190  -10.6360 O.3       1 <0>        -0.8106
     13 O6         15.0420   36.9090   -7.9430 O.2       1 <0>        -0.3501
     14 O7         17.3480   33.9430   -8.8600 O.2       1 <0>        -0.3501
     15 P1         15.3580   35.6930   -7.1820 P.3       1 <0>        -0.0270
     16 P2         16.1440   34.1960   -9.6610 P.3       1 <0>        -0.0270
     17 H1         14.7798   28.5738   -8.4358 H         1 <0>         0.0843
     18 H2         15.8567   30.4148   -6.8691 H         1 <0>         0.0799
     19 H3         13.1031   32.3152   -9.4466 H         1 <0>         0.1002
     20 H4         15.9215   32.9388   -6.8898 H         1 <0>         0.0504
     21 H5         14.1569   33.2298   -6.5660 H         1 <0>         0.0504
     22 H6         13.4367   35.4275   -8.7650 H         1 <0>         0.2112
@<TRIPOS>BOND
     1    1    2 2
     2    1    6 1
     3    2    7 1
     4    3    6 2
     5    3    7 1
     6    4    5 1
     7    4    7 1
     8    5    8 1
     9    5   15 1
    10    5   16 1
    11    9   15 1
    12   10   15 1
    13   11   16 1
    14   12   16 1
    15   13   15 2
    16   14   16 2
    17    1   17 1
    18    2   18 1
    19    3   19 1
    20    4   20 1
    21    4   21 1
    22    8   22 1
