@<TRIPOS>MOLECULE
3AR_902_1QW6
   36    35     0     0     0
SMALL
USER_CHARGES

@<TRIPOS>ATOM
      1 C1         -0.4370    2.2720   62.3910 C.3       1 <0>        -0.0639
      2 C2         -1.7760    1.6360   62.0050 C.3       1 <0>        -0.0401
      3 C3          2.1370    0.7160   59.0340 C.3       1 <0>        -0.0318
      4 C4          2.7890   -0.6740   58.8270 C.3       1 <0>        -0.0029
      5 C5         -1.9230    1.4360   60.4930 C.3       1 <0>         0.0152
      6 C6          1.1140    1.1470   57.9580 C.3       1 <0>         0.0156
      7 C7          4.1020   -0.7510   58.0150 C.3       1 <0>         0.0160
      8 C8          4.5830   -2.1850   57.9480 C.2       1 <0>         0.0894
      9 C9         -0.9590   -0.0300   58.7860 C.cat     1 <0>         0.3240
     10 N1          3.9250   -0.2500   56.6770 N.4       1 <0>         0.2249
     11 N2         -1.9250   -0.8610   58.5400 N.pl3     1 <0>        -0.2027
     12 N3         -0.8790    0.5820   59.9880 N.pl3     1 <0>        -0.2792
     13 N4         -0.0150    0.2090   57.8300 N.pl3     1 <0>        -0.2792
     14 O1          4.2070   -3.0080   56.9310 O.co2     1 <0>        -0.5442
     15 O2          5.3690   -2.6930   58.9330 O.co2     1 <0>        -0.5442
     16 H1         -0.3882    2.3907   63.4835 H         1 <0>         0.0230
     17 H2          0.3865    1.6245   62.0556 H         1 <0>         0.0230
     18 H3         -0.3475    3.2577   61.9109 H         1 <0>         0.0230
     19 H4         -1.8470    0.6531   62.4936 H         1 <0>         0.0278
     20 H5         -2.5858    2.2967   62.3481 H         1 <0>         0.0278
     21 H6          1.6092    0.6915   59.9988 H         1 <0>         0.0282
     22 H7          2.9457    1.4617   59.0366 H         1 <0>         0.0282
     23 H8          3.0139   -1.0692   59.8286 H         1 <0>         0.0324
     24 H9          2.0516   -1.2920   58.2937 H         1 <0>         0.0324
     25 H10        -2.8985    0.9720   60.2853 H         1 <0>         0.0463
     26 H11        -1.8600    2.4141   59.9936 H         1 <0>         0.0463
     27 H12         0.7143    2.1334   58.2361 H         1 <0>         0.0463
     28 H13         1.6322    1.1987   56.9891 H         1 <0>         0.0463
     29 H14         4.8482   -0.1249   58.5260 H         1 <0>         0.0914
     30 H15         4.7902   -0.3135   56.1796 H         1 <0>         0.2001
     31 H16         3.2297   -0.7937   56.2069 H         1 <0>         0.2001
     32 H17         3.6319    0.7053   56.7150 H         1 <0>         0.2001
     33 H18        -1.9745   -1.3220   57.6540 H         1 <0>         0.4373
     34 H19        -2.6198   -1.0403   59.2365 H         1 <0>         0.4373
     35 H20        -0.0637    0.4364   60.5484 H         1 <0>         0.1528
     36 H21        -0.0963   -0.2950   56.9701 H         1 <0>         0.1528
@<TRIPOS>BOND
     1    1    2 1
     2    2    5 1
     3    3    4 1
     4    3    6 1
     5    4    7 1
     6    5   12 1
     7    6   13 1
     8    7    8 1
     9    7   10 1
    10    8   14 1
    11    8   15 2
    12    9   11 2
    13    9   12 1
    14    9   13 1
    15    1   16 1
    16    1   17 1
    17    1   18 1
    18    2   19 1
    19    2   20 1
    20    3   21 1
    21    3   22 1
    22    4   23 1
    23    4   24 1
    24    5   25 1
    25    5   26 1
    26    6   27 1
    27    6   28 1
    28    7   29 1
    29   10   30 1
    30   10   31 1
    31   10   32 1
    32   11   33 1
    33   11   34 1
    34   12   35 1
    35   13   36 1
