@<TRIPOS>MOLECULE
9JZ_1_3HL5
   76    79     0     0     0
SMALL
USER_CHARGES

@<TRIPOS>ATOM
      1 C1          7.2650    7.7770  -19.4560 C.3       1 <0>        -0.0602
      2 C2          8.4050   16.8550  -18.1220 C.3       1 <0>        -0.0130
      3 C3          7.9220   18.8070  -21.3610 C.3       1 <0>        -0.0441
      4 C4         13.9600    8.2810  -22.9420 C.ar      1 <0>        -0.0610
      5 C5         13.8620    8.7140  -21.6220 C.ar      1 <0>        -0.0600
      6 C6          8.3790    8.9380  -25.9920 C.ar      1 <0>        -0.0254
      7 C7         12.8420    8.3280  -23.7700 C.ar      1 <0>        -0.0493
      8 C8         12.6520    9.2010  -21.1370 C.ar      1 <0>        -0.0398
      9 C9          8.4630    9.8620  -24.9520 C.ar      1 <0>         0.0314
     10 C10         9.3760    7.9750  -26.1190 C.ar      1 <0>         0.0314
     11 C11         9.9800   14.4840  -25.0840 C.3       1 <0>        -0.0530
     12 C12         8.4630   14.3590  -24.9150 C.3       1 <0>        -0.0527
     13 C13        10.7280   13.5190  -24.1600 C.3       1 <0>        -0.0527
     14 C14         8.0540   14.5740  -23.4590 C.3       1 <0>        -0.0481
     15 C15        10.2850   13.6620  -22.6990 C.3       1 <0>        -0.0481
     16 C16         6.2930    9.7010  -20.8050 C.3       1 <0>        -0.0324
     17 C17         6.8450   11.0300  -21.2960 C.3       1 <0>         0.0158
     18 C18        11.6220    8.8150  -23.2890 C.ar      1 <0>         0.0403
     19 C19        11.5270    9.2650  -21.9680 C.ar      1 <0>         0.0442
     20 C20        10.4640    8.8560  -24.2310 C.ar      1 <0>         0.1615
     21 C21         7.5310    8.9340  -20.4120 C.3       1 <0>        -0.0153
     22 C22         8.7570   13.5560  -22.5550 C.3       1 <0>        -0.0141
     23 C23         8.4990    9.9800  -19.8640 C.3       1 <0>         0.1051
     24 C24         8.4430   17.0640  -19.6330 C.3       1 <0>         0.0518
     25 C25         8.2410   13.5790  -21.1010 C.3       1 <0>         0.1025
     26 C26         9.8670    9.4940  -20.2350 C.2       1 <0>         0.2380
     27 C27         7.8500   15.8680  -20.3170 C.2       1 <0>         0.2615
     28 C28         8.7630   12.3680  -20.3720 C.2       1 <0>         0.2368
     29 N1          9.5010    9.8070  -24.1000 N.ar      1 <0>        -0.2356
     30 N2         10.3960    7.9550  -25.2470 N.ar      1 <0>        -0.2356
     31 N3          7.7540   18.2890  -20.0140 N.4       1 <0>         0.2334
     32 N4         10.2880    9.7190  -21.4890 N.am      1 <0>        -0.2833
     33 N5          8.6620   14.8220  -20.4610 N.am      1 <0>        -0.2991
     34 N6          8.0770   11.2240  -20.5180 N.am      1 <0>        -0.2881
     35 O1         10.5250    8.9130  -19.3870 O.2       1 <0>        -0.2734
     36 O2          6.6960   15.9000  -20.7290 O.2       1 <0>        -0.2696
     37 O3          9.7840   12.4600  -19.7000 O.2       1 <0>        -0.2735
     38 H1          8.2126    7.2711  -19.2191 H         1 <0>         0.0233
     39 H2          6.8142    8.1631  -18.5299 H         1 <0>         0.0233
     40 H3          6.5760    7.0618  -19.9290 H         1 <0>         0.0233
     41 H4          8.8396   17.7314  -17.6190 H         1 <0>         0.0289
     42 H5          7.3625   16.7250  -17.7961 H         1 <0>         0.0289
     43 H6          8.9854   15.9577  -17.8614 H         1 <0>         0.0289
     44 H7          7.3355   19.7306  -21.4751 H         1 <0>         0.0777
     45 H8          8.9854   19.0237  -21.5403 H         1 <0>         0.0777
     46 H9          7.5725   18.0588  -22.0876 H         1 <0>         0.0777
     47 H10        14.9004    7.9099  -23.3220 H         1 <0>         0.0618
     48 H11        14.7254    8.6718  -20.9745 H         1 <0>         0.0618
     49 H12         7.5538    8.9687  -26.6880 H         1 <0>         0.0648
     50 H13        12.9171    7.9859  -24.7916 H         1 <0>         0.0625
     51 H14        12.5802    9.5322  -20.1115 H         1 <0>         0.0636
     52 H15         7.6997   10.6165  -24.8316 H         1 <0>         0.0831
     53 H16         9.3290    7.2472  -26.9156 H         1 <0>         0.0831
     54 H17        10.2412   14.2508  -26.1268 H         1 <0>         0.0265
     55 H18        10.2805   15.5136  -24.8398 H         1 <0>         0.0265
     56 H19         7.9701   15.1179  -25.5404 H         1 <0>         0.0265
     57 H20         8.1503   13.3522  -25.2290 H         1 <0>         0.0265
     58 H21        10.5255   12.4892  -24.4894 H         1 <0>         0.0265
     59 H22        11.8047   13.7353  -24.2235 H         1 <0>         0.0265
     60 H23         8.3386   15.5904  -23.1493 H         1 <0>         0.0269
     61 H24         6.9650   14.4489  -23.3666 H         1 <0>         0.0269
     62 H25        10.7520   12.8603  -22.1081 H         1 <0>         0.0269
     63 H26        10.6076   14.6455  -22.3266 H         1 <0>         0.0269
     64 H27         5.6129    9.8362  -19.9511 H         1 <0>         0.0284
     65 H28         5.7286    9.1814  -21.5934 H         1 <0>         0.0284
     66 H29         7.0568   10.9985  -22.3750 H         1 <0>         0.0465
     67 H30         6.1302   11.8472  -21.1194 H         1 <0>         0.0465
     68 H31         7.9631    8.4143  -21.2799 H         1 <0>         0.0321
     69 H32         8.4876   12.5481  -22.9035 H         1 <0>         0.0323
     70 H33         8.5079   10.1470  -18.7768 H         1 <0>         0.0599
     71 H34         9.4899   17.1731  -19.9525 H         1 <0>         0.0946
     72 H35         7.1419   13.5419  -21.0781 H         1 <0>         0.0597
     73 H36         8.0840   19.0018  -19.3951 H         1 <0>         0.2018
     74 H37         6.7768   18.1090  -19.9014 H         1 <0>         0.2018
     75 H38         9.6939   10.2319  -22.1087 H         1 <0>         0.1549
     76 H39         9.5983   14.8908  -20.1167 H         1 <0>         0.1496
@<TRIPOS>BOND
     1    1   21 1
     2    2   24 1
     3    3   31 1
     4    4    5 ar
     5    4    7 ar
     6    5    8 ar
     7    6    9 ar
     8    6   10 ar
     9    7   18 ar
    10    8   19 ar
    11    9   29 ar
    12   10   30 ar
    13   11   12 1
    14   11   13 1
    15   12   14 1
    16   13   15 1
    17   14   22 1
    18   15   22 1
    19   16   17 1
    20   16   21 1
    21   17   34 1
    22   18   19 ar
    23   18   20 1
    24   19   32 1
    25   20   29 ar
    26   20   30 ar
    27   21   23 1
    28   22   25 1
    29   23   26 1
    30   23   34 1
    31   24   27 1
    32   24   31 1
    33   25   28 1
    34   25   33 1
    35   26   32 am
    36   26   35 2
    37   27   33 am
    38   27   36 2
    39   28   34 am
    40   28   37 2
    41    1   38 1
    42    1   39 1
    43    1   40 1
    44    2   41 1
    45    2   42 1
    46    2   43 1
    47    3   44 1
    48    3   45 1
    49    3   46 1
    50    4   47 1
    51    5   48 1
    52    6   49 1
    53    7   50 1
    54    8   51 1
    55    9   52 1
    56   10   53 1
    57   11   54 1
    58   11   55 1
    59   12   56 1
    60   12   57 1
    61   13   58 1
    62   13   59 1
    63   14   60 1
    64   14   61 1
    65   15   62 1
    66   15   63 1
    67   16   64 1
    68   16   65 1
    69   17   66 1
    70   17   67 1
    71   21   68 1
    72   22   69 1
    73   23   70 1
    74   24   71 1
    75   25   72 1
    76   31   73 1
    77   31   74 1
    78   32   75 1
    79   33   76 1
