@<TRIPOS>MOLECULE
DNC_302_3BWM
   18    18     0     0     0
SMALL
USER_CHARGES

@<TRIPOS>ATOM
      1 C1         -3.6390  -12.1570  -18.8760 C.ar      1 <0>        -0.0030
      2 C2         -4.2110  -13.6290  -17.0160 C.ar      1 <0>        -0.0013
      3 C3         -3.7730  -13.4330  -18.3280 C.ar      1 <0>         0.1217
      4 C4         -3.9460  -11.0220  -18.1390 C.ar      1 <0>         0.1511
      5 C5         -4.5400  -12.5550  -16.2070 C.ar      1 <0>         0.1063
      6 C6         -4.4190  -11.1870  -16.7510 C.ar      1 <0>         0.1307
      7 N1         -3.4310  -14.5410  -19.1120 N.pl3     1 <0>         0.0926
      8 N2         -3.7970   -9.7460  -18.6960 N.pl3     1 <0>         0.0951
      9 O1         -4.9790  -12.7460  -14.9300 O.3       1 <0>        -0.3572
     10 O2         -4.7300  -10.1190  -15.9720 O.3       1 <0>        -0.3557
     11 O3         -3.0530  -14.3450  -20.2510 O.2       1 <0>        -0.1369
     12 O4         -3.4830  -15.6920  -18.6640 O.2       1 <0>        -0.1369
     13 O5         -4.3380   -8.7720  -18.2000 O.2       1 <0>        -0.1368
     14 O6         -3.1050   -9.5950  -19.6860 O.2       1 <0>        -0.1368
     15 H1         -3.2899  -12.0506  -19.8925 H         1 <0>         0.0660
     16 H2         -4.2941  -14.6332  -16.6272 H         1 <0>         0.0665
     17 H3         -5.1562  -11.9045  -14.5264 H         1 <0>         0.2174
     18 H4         -4.6926   -9.3252  -16.4925 H         1 <0>         0.2175
@<TRIPOS>BOND
     1    1    3 ar
     2    1    4 ar
     3    2    3 ar
     4    2    5 ar
     5    3    7 1
     6    4    6 ar
     7    4    8 1
     8    5    6 ar
     9    5    9 1
    10    6   10 1
    11    7   11 2
    12    7   12 2
    13    8   13 2
    14    8   14 2
    15    1   15 1
    16    2   16 1
    17    9   17 1
    18   10   18 1
