@<TRIPOS>MOLECULE
WOW_1_3KBA
   49    51     0     0     0
SMALL
USER_CHARGES

@<TRIPOS>ATOM
      1 C1         -0.1650   -8.7890   22.1950 C.3       1 <0>        -0.0394
      2 C2         -3.1370   -6.8660   20.0840 C.3       1 <0>         0.0734
      3 C3         -2.4550  -11.7100   21.5860 C.ar      1 <0>        -0.0615
      4 C4         -3.4330  -11.5150   22.5570 C.ar      1 <0>        -0.0614
      5 C5         -1.4100  -10.8030   21.4580 C.ar      1 <0>        -0.0585
      6 C6         -3.3220  -10.4570   23.4540 C.ar      1 <0>        -0.0568
      7 C7         -4.6060   -8.4300   27.1590 C.ar      1 <0>        -0.0393
      8 C8         -4.7930   -9.0480   28.3910 C.ar      1 <0>        -0.0412
      9 C9         -2.6160   -9.7370   26.7790 C.ar      1 <0>        -0.0210
     10 C10        -3.3990   -5.6290   24.8970 C.3       1 <0>        -0.0157
     11 C11        -3.1310   -5.2460   23.4420 C.3       1 <0>         0.0310
     12 C12        -4.7670   -6.9470   23.5040 C.3       1 <0>         0.0478
     13 C13        -2.1950   -8.4160   24.3000 C.3       1 <0>         0.0378
     14 C14        -4.1100  -10.6660   30.1350 C.1       1 <0>         0.1006
     15 C15        -1.3060   -9.7290   22.3430 C.ar      1 <0>        -0.0458
     16 C16        -3.5200   -8.7700   26.3520 C.ar      1 <0>         0.0317
     17 C17        -2.2820   -9.5410   23.3290 C.ar      1 <0>        -0.0273
     18 C18        -3.8980  -10.0220   28.8140 C.ar      1 <0>         0.0701
     19 C19        -2.8280  -10.3870   27.9910 C.ar      1 <0>         0.0600
     20 C20        -4.1000   -6.9470   24.8250 C.3       1 <0>         0.0423
     21 N1         -4.2790  -11.1670   31.1350 N.1       1 <0>        -0.1908
     22 N2         -3.9050   -6.1610   22.6220 N.pl3     1 <0>        -0.2369
     23 N3         -3.3280   -8.1100   25.1100 N.pl3     1 <0>        -0.3209
     24 O1         -2.8210   -4.5020   21.1500 O.2       1 <0>        -0.1556
     25 O2         -4.9790   -5.1660   20.6430 O.2       1 <0>        -0.1556
     26 S1         -3.7230   -5.5970   21.1220 S.o2      1 <0>         0.0386
     27 Cl1        -1.6390  -11.5060   28.5170 Cl        1 <0>        -0.0822
     28 H1         -0.4445   -7.9777   21.5068 H         1 <0>         0.0278
     29 H2          0.0901   -8.3647   23.1773 H         1 <0>         0.0278
     30 H3          0.7045   -9.3286   21.7915 H         1 <0>         0.0278
     31 H4         -3.0143   -6.4774   19.0623 H         1 <0>         0.0482
     32 H5         -2.1674   -7.2268   20.4578 H         1 <0>         0.0482
     33 H6         -3.8590   -7.6958   20.0762 H         1 <0>         0.0482
     34 H7         -2.5084  -12.5672   20.9313 H         1 <0>         0.0618
     35 H8         -4.2781  -12.1850   22.6142 H         1 <0>         0.0618
     36 H9         -0.6784  -10.9292   20.6737 H         1 <0>         0.0620
     37 H10        -4.0446  -10.3465   24.2490 H         1 <0>         0.0621
     38 H11        -5.3077   -7.6804   26.8242 H         1 <0>         0.0636
     39 H12        -5.6298   -8.7718   29.0154 H         1 <0>         0.0631
     40 H13        -1.7554   -9.9817   26.1740 H         1 <0>         0.0651
     41 H14        -2.4592   -5.7123   25.4626 H         1 <0>         0.0299
     42 H15        -4.0267   -4.8749   25.3943 H         1 <0>         0.0299
     43 H16        -3.4407   -4.2072   23.2551 H         1 <0>         0.0478
     44 H17        -2.0592   -5.3373   23.2121 H         1 <0>         0.0478
     45 H18        -4.8789   -7.9735   23.1248 H         1 <0>         0.0496
     46 H19        -5.7676   -6.4953   23.5735 H         1 <0>         0.0496
     47 H20        -1.3773   -8.6660   24.9920 H         1 <0>         0.0513
     48 H21        -1.9825   -7.5124   23.7097 H         1 <0>         0.0513
     49 H22        -4.8195   -7.0312   25.6528 H         1 <0>         0.0516
@<TRIPOS>BOND
     1    1   15 1
     2    2   26 1
     3    3    4 ar
     4    3    5 ar
     5    4    6 ar
     6    5   15 ar
     7    6   17 ar
     8    7    8 ar
     9    7   16 ar
    10    8   18 ar
    11    9   16 ar
    12    9   19 ar
    13   10   11 1
    14   10   20 1
    15   11   22 1
    16   12   20 1
    17   12   22 1
    18   13   17 1
    19   13   23 1
    20   14   18 1
    21   14   21 3
    22   15   17 ar
    23   16   23 1
    24   18   19 ar
    25   19   27 1
    26   20   23 1
    27   22   26 1
    28   24   26 2
    29   25   26 2
    30    1   28 1
    31    1   29 1
    32    1   30 1
    33    2   31 1
    34    2   32 1
    35    2   33 1
    36    3   34 1
    37    4   35 1
    38    5   36 1
    39    6   37 1
    40    7   38 1
    41    8   39 1
    42    9   40 1
    43   10   41 1
    44   10   42 1
    45   11   43 1
    46   11   44 1
    47   12   45 1
    48   12   46 1
    49   13   47 1
    50   13   48 1
    51   20   49 1
