@<TRIPOS>MOLECULE
RMA_601_1S3B
   32    33     0     0     0
SMALL
USER_CHARGES

@<TRIPOS>ATOM
      1 C1         53.9140  152.8990   25.5760 C.3       1 <0>        -0.0422
      2 C2         53.9890  151.3550   21.8360 C.2       1 <0>        -0.0977
      3 C3         50.9380  154.4520   29.2130 C.ar      1 <0>        -0.0615
      4 C4         50.7560  153.2750   28.4970 C.ar      1 <0>        -0.0613
      5 C5         51.4940  155.5650   28.6010 C.ar      1 <0>        -0.0581
      6 C6         51.1110  153.1890   27.1580 C.ar      1 <0>        -0.0530
      7 C7         52.4620  156.5410   26.4410 C.3       1 <0>        -0.0218
      8 C8         52.7910  155.8190   25.1210 C.3       1 <0>        -0.0013
      9 C9         53.0210  152.9490   23.5260 C.3       1 <0>        -0.0130
     10 C10        53.9680  151.8440   23.0370 C.2       1 <0>        -0.0465
     11 C11        51.8490  155.4620   27.2720 C.ar      1 <0>        -0.0387
     12 C12        51.6670  154.3070   26.5670 C.ar      1 <0>         0.0033
     13 C13        52.1190  154.4370   25.1380 C.3       1 <0>         0.0056
     14 N1         53.0570  153.3850   24.7420 N.4       1 <0>         0.2413
     15 H1         53.7943  153.3896   26.5532 H         1 <0>         0.0778
     16 H2         53.7458  151.8175   25.6858 H         1 <0>         0.0778
     17 H3         54.9324  153.0755   25.1996 H         1 <0>         0.0778
     18 H4         53.3024  151.7265   21.0896 H         1 <0>         0.0534
     19 H5         54.6930  150.5763   21.5822 H         1 <0>         0.0534
     20 H6         50.6449  154.5000   30.2514 H         1 <0>         0.0618
     21 H7         50.3314  152.4132   28.9905 H         1 <0>         0.0618
     22 H8         51.6445  156.4841   29.1478 H         1 <0>         0.0620
     23 H9         50.9578  152.2789   26.5971 H         1 <0>         0.0622
     24 H10        53.3651  156.9544   26.9139 H         1 <0>         0.0315
     25 H11        51.7655  157.3777   26.2836 H         1 <0>         0.0315
     26 H12        52.4125  156.4063   24.2714 H         1 <0>         0.0327
     27 H13        53.8803  155.7018   25.0225 H         1 <0>         0.0327
     28 H14        53.2341  153.8226   22.8924 H         1 <0>         0.0861
     29 H15        52.0051  152.5516   23.3845 H         1 <0>         0.0861
     30 H16        54.6727  151.4419   23.7498 H         1 <0>         0.0619
     31 H17        51.2883  154.3363   24.4240 H         1 <0>         0.0904
     32 H18        53.2405  153.1991   25.7073 H         1 <0>         0.2040
@<TRIPOS>BOND
     1    1   14 1
     2    2   10 2
     3    3    4 ar
     4    3    5 ar
     5    4    6 ar
     6    5   11 ar
     7    6   12 ar
     8    7    8 1
     9    7   11 1
    10    8   13 1
    11    9   10 1
    12    9   14 1
    13   11   12 ar
    14   12   13 1
    15   13   14 1
    16    1   15 1
    17    1   16 1
    18    1   17 1
    19    2   18 1
    20    2   19 1
    21    3   20 1
    22    4   21 1
    23    5   22 1
    24    6   23 1
    25    7   24 1
    26    7   25 1
    27    8   26 1
    28    8   27 1
    29    9   28 1
    30    9   29 1
    31   10   30 1
    32   13   31 1
    33   14   32 1
