@<TRIPOS>MOLECULE
DIH_301_3BGS
   36    38     0     0     0
SMALL
USER_CHARGES

@<TRIPOS>ATOM
      1 C1         15.3140   12.5680   55.8720 C.2       1 <0>         0.0043
      2 C2         12.8200    8.7810   55.9870 C.2       1 <0>         0.0885
      3 C3         14.4050   11.3140   59.5270 C.3       1 <0>        -0.0239
      4 C4         14.7430   13.6140   60.0630 C.3       1 <0>        -0.0044
      5 C5         13.6400   12.9170   57.8490 C.3       1 <0>        -0.0025
      6 C6         16.7320   10.9600   60.1650 C.3       1 <0>         0.0544
      7 C7         14.2510   12.1500   56.6800 C.2       1 <0>         0.0381
      8 C8         14.7670   10.5260   55.1120 C.2       1 <0>         0.1200
      9 C9         13.9200   10.8040   56.1780 C.2       1 <0>         0.1008
     10 C10        14.5940    9.2850   54.4940 C.2       1 <0>         0.2651
     11 C11        15.3500   11.3370   60.7030 C.3       1 <0>         0.0531
     12 C12        15.2100   12.7530   61.2600 C.3       1 <0>         0.1046
     13 N1         15.6060   11.6060   54.9580 N.pl3     1 <0>        -0.3143
     14 N2         13.6190    8.4360   54.9600 N.am      1 <0>        -0.2713
     15 N3         12.9580    9.9320   56.6180 N.2       1 <0>        -0.2377
     16 N4         14.6250   12.6590   58.9290 N.4       1 <0>         0.2407
     17 O1         17.4940   12.1340   59.8980 O.3       1 <0>        -0.3944
     18 O2         14.1980   12.6870   62.3130 O.3       1 <0>        -0.3860
     19 O3         15.3310    8.9110   53.5410 O.2       1 <0>        -0.2684
     20 H1         15.8263   13.5146   55.9615 H         1 <0>         0.0787
     21 H2         12.0455    8.0978   56.3030 H         1 <0>         0.1001
     22 H3         14.6428   10.5042   58.8216 H         1 <0>         0.0819
     23 H4         13.3606   11.1663   59.8390 H         1 <0>         0.0819
     24 H5         13.7771   14.0954   60.2759 H         1 <0>         0.0840
     25 H6         15.4724   14.4060   59.8379 H         1 <0>         0.0840
     26 H7         13.5360   13.9902   57.6311 H         1 <0>         0.0868
     27 H8         12.6363   12.5481   58.1070 H         1 <0>         0.0868
     28 H9         17.2579   10.3496   60.9139 H         1 <0>         0.0562
     29 H10        16.6139   10.3856   59.2344 H         1 <0>         0.0562
     30 H11        15.1525   10.6278   61.5203 H         1 <0>         0.0402
     31 H12        16.1311   13.1767   61.6868 H         1 <0>         0.0652
     32 H13        16.3288   11.6733   54.2702 H         1 <0>         0.1518
     33 H14        13.5005    7.5425   54.5268 H         1 <0>         0.1560
     34 H15        15.4793   12.7614   58.4194 H         1 <0>         0.2038
     35 H16        18.3490   11.8881   59.5649 H         1 <0>         0.2094
     36 H17        14.5196   12.1516   63.0288 H         1 <0>         0.2100
@<TRIPOS>BOND
     1    1    7 2
     2    1   13 1
     3    2   14 1
     4    2   15 2
     5    3   11 1
     6    3   16 1
     7    4   12 1
     8    4   16 1
     9    5    7 1
    10    5   16 1
    11    6   11 1
    12    6   17 1
    13    7    9 1
    14    8    9 2
    15    8   10 1
    16    8   13 1
    17    9   15 1
    18   10   14 am
    19   10   19 2
    20   11   12 1
    21   12   18 1
    22    1   20 1
    23    2   21 1
    24    3   22 1
    25    3   23 1
    26    4   24 1
    27    4   25 1
    28    5   26 1
    29    5   27 1
    30    6   28 1
    31    6   29 1
    32   11   30 1
    33   12   31 1
    34   13   32 1
    35   14   33 1
    36   16   34 1
    37   17   35 1
    38   18   36 1
