@<TRIPOS>MOLECULE
YAM_1_3BZ3
   53    56     0     0     0
SMALL
USER_CHARGES

@<TRIPOS>ATOM
      1 C1          7.2060    1.7490    8.4340 C.3       1 <0>         0.0247
      2 C2          6.4770    4.4940   10.5380 C.3       1 <0>         0.0738
      3 C3          6.2440    5.3390    5.0870 C.ar      1 <0>        -0.0432
      4 C4          7.5450    4.8560    5.1080 C.ar      1 <0>        -0.0523
      5 C5         11.7640    1.0410    4.6440 C.ar      1 <0>        -0.0384
      6 C6         11.0890    0.3320    3.6640 C.ar      1 <0>        -0.0339
      7 C7          5.4100    5.0740    6.1560 C.ar      1 <0>         0.0298
      8 C8         13.8490    0.6270    3.5140 C.ar      1 <0>        -0.0311
      9 C9         13.9140    4.9040    7.4010 C.ar      1 <0>         0.0462
     10 C10        13.6520   -0.8140    1.3110 C.2       1 <0>         0.0139
     11 C11         9.3970    3.6440    6.2570 C.3       1 <0>         0.0390
     12 C12        13.1490    1.1950    4.5730 C.ar      1 <0>         0.0343
     13 C13         7.9820    4.1550    6.2180 C.ar      1 <0>         0.0109
     14 C14        11.7980   -0.2350    2.6010 C.ar      1 <0>         0.0752
     15 C15        13.1810   -0.0890    2.5510 C.ar      1 <0>         0.0074
     16 C16        12.5840    5.2750    7.4520 C.ar      1 <0>         0.1125
     17 C17        11.6570    4.4380    6.7960 C.ar      1 <0>         0.1358
     18 C18         7.0960    3.9320    7.2730 C.ar      1 <0>         0.1445
     19 C19        13.3890    3.0320    6.1780 C.ar      1 <0>         0.2212
     20 C20        12.3740   -1.3540    0.7050 C.2       1 <0>         0.2714
     21 C21        12.2360    6.5400    8.2100 C.3       1 <0>         0.4220
     22 N1          5.8430    4.3860    7.2030 N.ar      1 <0>        -0.2385
     23 N2         14.2790    3.8010    6.7730 N.ar      1 <0>        -0.2220
     24 N3         12.1030    3.3470    6.1710 N.ar      1 <0>        -0.1989
     25 N4         11.3590   -0.9520    1.4890 N.2       1 <0>        -0.2091
     26 N5         10.2950    4.6680    6.8030 N.pl3     1 <0>        -0.3243
     27 N6         13.8880    1.9310    5.5100 N.pl3     1 <0>        -0.2836
     28 N7          7.4760    3.1920    8.3950 N.pl3     1 <0>        -0.1932
     29 O1         12.2760   -2.0020   -0.3200 O.2       1 <0>        -0.2659
     30 O2          8.6220    2.8850   10.4820 O.2       1 <0>        -0.1552
     31 O3          8.7670    5.0540    9.2680 O.2       1 <0>        -0.1552
     32 F1         13.3970    7.0620    8.7780 F         1 <0>        -0.1657
     33 F2         11.7330    7.5280    7.3710 F         1 <0>        -0.1657
     34 F3         11.3120    6.2820    9.2180 F         1 <0>        -0.1657
     35 S1          8.0250    3.9480    9.7600 S.o2      1 <0>         0.0435
     36 H1          7.5702    1.3329    9.3849 H         1 <0>         0.0447
     37 H2          6.1229    1.5764    8.3493 H         1 <0>         0.0447
     38 H3          7.7225    1.2567    7.5968 H         1 <0>         0.0447
     39 H4          6.7038    5.0226   11.4756 H         1 <0>         0.0482
     40 H5          5.9428    5.1713    9.8554 H         1 <0>         0.0482
     41 H6          5.8467    3.6187   10.7540 H         1 <0>         0.0482
     42 H7          5.8881    5.9148    4.2455 H         1 <0>         0.0633
     43 H8          8.2061    5.0247    4.2708 H         1 <0>         0.0622
     44 H9         11.2160    1.4764    5.4665 H         1 <0>         0.0637
     45 H10        10.0166    0.2174    3.7211 H         1 <0>         0.0639
     46 H11         4.3913    5.4323    6.1384 H         1 <0>         0.0830
     47 H12        14.9201    0.7492    3.4487 H         1 <0>         0.0643
     48 H13        14.6610    5.5208    7.8784 H         1 <0>         0.0837
     49 H14        14.6620   -0.9214    0.9439 H         1 <0>         0.0679
     50 H15         9.4403    2.7485    6.8944 H         1 <0>         0.0512
     51 H16         9.7175    3.3897    5.2359 H         1 <0>         0.0512
     52 H17        10.1453    5.4938    6.2592 H         1 <0>         0.1478
     53 H18        14.8258    1.6436    5.7049 H         1 <0>         0.1550
@<TRIPOS>BOND
     1    1   28 1
     2    2   35 1
     3    3    4 ar
     4    3    7 ar
     5    4   13 ar
     6    5    6 ar
     7    5   12 ar
     8    6   14 ar
     9    7   22 ar
    10    8   12 ar
    11    8   15 ar
    12    9   16 ar
    13    9   23 ar
    14   10   15 2
    15   10   20 1
    16   11   13 1
    17   11   26 1
    18   12   27 1
    19   13   18 ar
    20   14   15 ar
    21   14   25 2
    22   16   17 ar
    23   16   21 1
    24   17   24 ar
    25   17   26 1
    26   18   22 ar
    27   18   28 1
    28   19   23 ar
    29   19   24 ar
    30   19   27 1
    31   20   25 1
    32   20   29 2
    33   21   32 1
    34   21   33 1
    35   21   34 1
    36   28   35 1
    37   30   35 2
    38   31   35 2
    39    1   36 1
    40    1   37 1
    41    1   38 1
    42    2   39 1
    43    2   40 1
    44    2   41 1
    45    3   42 1
    46    4   43 1
    47    5   44 1
    48    6   45 1
    49    7   46 1
    50    8   47 1
    51    9   48 1
    52   10   49 1
    53   11   50 1
    54   11   51 1
    55   26   52 1
    56   27   53 1
