@<TRIPOS>MOLECULE
626_500_2OWB
   57    61     0     0     0
SMALL
USER_CHARGES

@<TRIPOS>ATOM
      1 C1          1.4540   16.8830   70.5530 C.3       1 <0>        -0.0430
      2 C2          0.0640   25.9230   60.9060 C.2       1 <0>        -0.0545
      3 C3         -0.0550   27.0070   61.8670 C.2       1 <0>        -0.0511
      4 C4          0.2030   23.3230   70.8220 C.ar      1 <0>        -0.0479
      5 C5         -1.2930   22.5310   69.1120 C.ar      1 <0>        -0.0479
      6 C6         -0.0320   22.1590   71.5690 C.ar      1 <0>        -0.0399
      7 C7         -1.5290   21.3650   69.8610 C.ar      1 <0>        -0.0399
      8 C8         -1.1010   25.1660   60.8630 C.2       1 <0>        -0.0241
      9 C9         -0.3620   27.2160   66.0640 C.2       1 <0>         0.0164
     10 C10         1.0500   29.2840   65.7690 C.2       1 <0>         0.0272
     11 C11        -0.7340   18.0130   70.4850 C.3       1 <0>        -0.0160
     12 C12         0.9990   18.7730   72.0480 C.3       1 <0>        -0.0160
     13 C13        -1.7640   18.7760   71.3230 C.3       1 <0>         0.0525
     14 C14        -0.0820   19.5050   72.8470 C.3       1 <0>         0.0525
     15 C15        -1.7960   27.9610   63.5460 C.3       1 <0>         0.0561
     16 C16        -0.4150   23.5420   69.5720 C.ar      1 <0>         0.0372
     17 C17        -0.9040   21.1450   71.1150 C.ar      1 <0>         0.0301
     18 C18        -1.3080   26.9940   62.4920 C.2       1 <0>        -0.0014
     19 C19         0.6220   27.4120   67.1700 C.2       1 <0>         0.0547
     20 C20         1.3560   28.5080   66.9920 C.2       1 <0>         0.0744
     21 C21         1.0950   26.8180   68.4280 C.2       1 <0>         0.1535
     22 C22        -0.6310   28.7700   64.1010 C.2       1 <0>         0.2281
     23 C23        -0.1730   24.7700   68.7470 C.2       1 <0>         0.2494
     24 N1          2.2070   28.5660   68.0640 N.pl3     1 <0>        -0.2341
     25 N2          2.0440   27.5860   68.8750 N.2       1 <0>        -0.1660
     26 N3          0.7470   25.6700   69.1520 N.am      1 <0>        -0.2646
     27 N4         -0.0340   28.4200   65.2440 N.am      1 <0>        -0.2510
     28 N5          0.4230   17.6180   71.3230 N.4       1 <0>         0.2353
     29 N6         -1.1260   19.9640   71.9180 N.pl3     1 <0>        -0.3198
     30 O1         -0.2580   29.7610   63.4780 O.2       1 <0>        -0.2746
     31 O2         -0.8200   24.8810   67.7080 O.2       1 <0>        -0.2698
     32 S1         -2.3310   25.7200   61.9460 S.3       1 <0>        -0.1011
     33 H1          2.2874   16.6142   71.2188 H         1 <0>         0.0778
     34 H2          1.0129   15.9683   70.1302 H         1 <0>         0.0778
     35 H3          1.8270   17.5209   69.7382 H         1 <0>         0.0778
     36 H4          0.9408   25.7313   60.3053 H         1 <0>         0.0623
     37 H5          0.7219   27.7286   62.0723 H         1 <0>         0.0626
     38 H6          0.8751   24.0720   71.2141 H         1 <0>         0.0626
     39 H7         -1.7932   22.6586   68.1634 H         1 <0>         0.0626
     40 H8          0.4681   22.0348   72.5182 H         1 <0>         0.0636
     41 H9         -2.2038   20.6172   69.4714 H         1 <0>         0.0636
     42 H10        -1.2266   24.3118   60.2141 H         1 <0>         0.0693
     43 H11        -1.0924   26.4366   65.9048 H         1 <0>         0.0796
     44 H12         1.4816   30.1947   65.3807 H         1 <0>         0.0807
     45 H13        -1.2043   17.1095   70.0696 H         1 <0>         0.0830
     46 H14        -0.3835   18.6596   69.6671 H         1 <0>         0.0830
     47 H15         1.4412   19.4694   71.3204 H         1 <0>         0.0830
     48 H16         1.7745   18.4123   72.7397 H         1 <0>         0.0830
     49 H17        -2.5997   19.0907   70.6807 H         1 <0>         0.0516
     50 H18        -2.1431   18.1231   72.1230 H         1 <0>         0.0516
     51 H19        -0.5203   18.8228   73.5903 H         1 <0>         0.0516
     52 H20         0.3601   20.3689   73.3649 H         1 <0>         0.0516
     53 H21        -2.5302   28.6458   63.0964 H         1 <0>         0.0412
     54 H22        -2.2668   27.3966   64.3644 H         1 <0>         0.0412
     55 H23         2.8809   29.2923   68.1992 H         1 <0>         0.1745
     56 H24         1.2095   25.5075   70.0236 H         1 <0>         0.1566
     57 H25         0.0718   16.9821   72.0102 H         1 <0>         0.2032
@<TRIPOS>BOND
     1    1   28 1
     2    2    3 1
     3    2    8 2
     4    3   18 2
     5    4    6 ar
     6    4   16 ar
     7    5    7 ar
     8    5   16 ar
     9    6   17 ar
    10    7   17 ar
    11    8   32 1
    12    9   19 2
    13    9   27 1
    14   10   20 2
    15   10   27 1
    16   11   13 1
    17   11   28 1
    18   12   14 1
    19   12   28 1
    20   13   29 1
    21   14   29 1
    22   15   18 1
    23   15   22 1
    24   16   23 1
    25   17   29 1
    26   18   32 1
    27   19   20 1
    28   19   21 1
    29   20   24 1
    30   21   25 2
    31   21   26 1
    32   22   27 am
    33   22   30 2
    34   23   26 am
    35   23   31 2
    36   24   25 1
    37    1   33 1
    38    1   34 1
    39    1   35 1
    40    2   36 1
    41    3   37 1
    42    4   38 1
    43    5   39 1
    44    6   40 1
    45    7   41 1
    46    8   42 1
    47    9   43 1
    48   10   44 1
    49   11   45 1
    50   11   46 1
    51   12   47 1
    52   12   48 1
    53   13   49 1
    54   13   50 1
    55   14   51 1
    56   14   52 1
    57   15   53 1
    58   15   54 1
    59   24   55 1
    60   26   56 1
    61   28   57 1
