@<TRIPOS>MOLECULE
*****
   63    66     0     0     0
SMALL
USER_CHARGES

@<TRIPOS>ATOM
      1 C1         15.9330   -6.3540   66.5010 C.3       1 <0>        -0.0411
      2 N1         17.5970   -8.0290   67.0910 N.pl3     1 <0>        -0.3043
      3 S1         18.5490   -9.7940   69.0340 S.3       1 <0>         0.0374
      4 C2         17.3190   -6.5960   67.0740 C.3       1 <0>         0.0597
      5 N2         17.8460   -7.3460   69.1600 N.pl3     1 <0>        -0.1644
      6 S2         19.8340   -5.9640   71.7750 S.3       1 <0>        -0.0181
      7 C3         18.4120   -5.8870   66.2860 C.3       1 <0>        -0.0411
      8 N3         20.2120   -7.9660   73.3090 N.pl3     1 <0>        -0.1947
      9 C4         17.8780   -8.3760   68.3540 C.cat     1 <0>         0.2163
     10 N4         22.0080   -7.4550   71.8910 N.pl3     1 <0>        -0.2839
     11 C5         18.6330   -8.9890   70.5800 C.2       1 <0>         0.1434
     12 C6         17.3700   -6.1280   68.5350 C.3       1 <0>         0.0975
     13 C7         18.2170   -7.6440   70.4290 C.2       1 <0>         0.2141
     14 C8         18.2070   -6.6130   71.5380 C.3       1 <0>         0.1154
     15 C9         20.7730   -7.2210   72.3500 C.cat     1 <0>         0.2958
     16 C10        20.7110   -9.1410   74.0080 C.3       1 <0>         0.1487
     17 C11        21.5070   -8.8340   75.2730 C.3       1 <0>         0.0087
     18 C12        21.6970  -10.1260   76.0680 C.3       1 <0>        -0.0471
     19 C13        22.4250  -11.1810   75.2360 C.3       1 <0>        -0.0526
     20 C14        21.7290  -11.4600   73.9040 C.3       1 <0>        -0.0471
     21 C15        21.3890  -10.1890   73.1260 C.3       1 <0>         0.0087
     22 C16        22.5070   -7.2760   70.5290 C.3       1 <0>         0.0262
     23 C17        21.4960   -7.4800   69.4020 C.3       1 <0>        -0.0344
     24 C18        22.1620   -7.3690   68.0310 C.3       1 <0>        -0.0514
     25 C19        22.9350   -6.0590   67.8710 C.3       1 <0>        -0.0529
     26 C20        23.9680   -5.8880   68.9810 C.3       1 <0>        -0.0514
     27 C21        23.3300   -5.9990   70.3660 C.3       1 <0>        -0.0344
     28 H1         16.3860   -5.8400   68.9040 H         1 <0>         0.0673
     29 H2         18.0880   -5.3170   68.6610 H         1 <0>         0.0673
     30 H3         17.5300   -5.8020   71.2700 H         1 <0>         0.0621
     31 H4         17.8650   -7.0790   72.4620 H         1 <0>         0.0621
     32 H5         22.6760   -7.7970   72.5670 H         1 <0>         0.1523
     33 H6         23.2280   -8.0820   70.3960 H         1 <0>         0.0499
     34 H7         24.1200   -5.9940   71.1170 H         1 <0>         0.0283
     35 H8         22.6830   -5.1370   70.5280 H         1 <0>         0.0283
     36 H9         24.4330   -4.9070   68.8830 H         1 <0>         0.0266
     37 H10        24.7330   -6.6570   68.8780 H         1 <0>         0.0266
     38 H11        23.4460   -6.0630   66.9080 H         1 <0>         0.0265
     39 H12        22.2350   -5.2240   67.9020 H         1 <0>         0.0265
     40 H13        21.3920   -7.4190   67.2610 H         1 <0>         0.0266
     41 H14        22.8490   -8.2050   67.9010 H         1 <0>         0.0266
     42 H15        20.7180   -6.7200   69.4810 H         1 <0>         0.0283
     43 H16        21.0440   -8.4670   69.5010 H         1 <0>         0.0283
     44 H17        19.2920   -7.6640   73.5950 H         1 <0>         0.4389
     45 H18        19.8120   -9.6380   74.3720 H         1 <0>         0.1056
     46 H19        22.3090   -9.7670   72.7230 H         1 <0>         0.0329
     47 H20        20.7230  -10.4440   72.3010 H         1 <0>         0.0329
     48 H21        20.8050  -12.0020   74.1030 H         1 <0>         0.0267
     49 H22        22.3790  -12.0850   73.2910 H         1 <0>         0.0267
     50 H23        22.4690  -12.1080   75.8080 H         1 <0>         0.0265
     51 H24        23.4410  -10.8380   75.0400 H         1 <0>         0.0265
     52 H25        22.2830   -9.9110   76.9620 H         1 <0>         0.0267
     53 H26        20.7210  -10.5120   76.3630 H         1 <0>         0.0267
     54 H27        22.4810   -8.4260   75.0020 H         1 <0>         0.0329
     55 H28        20.9630   -8.1090   75.8790 H         1 <0>         0.0329
     56 H29        18.9520   -9.4450   71.5060 H         1 <0>         0.1770
     57 H30        17.5800   -8.6480   66.2930 H         1 <0>         0.1497
     58 H31        15.9040   -6.6890   65.4640 H         1 <0>         0.0251
     59 H32        15.7020   -5.2900   66.5460 H         1 <0>         0.0251
     60 H33        15.1970   -6.9100   67.0820 H         1 <0>         0.0251
     61 H34        18.3820   -6.2140   65.2470 H         1 <0>         0.0251
     62 H35        18.2520   -4.8100   66.3320 H         1 <0>         0.0251
     63 H36        19.3840   -6.1290   66.7150 H         1 <0>         0.0251
@<TRIPOS>BOND
     1    7   61 1
     2    1   58 1
     3    7   62 1
     4    7   63 1
     5    4    7 1
     6    2   57 1
     7    1   59 1
     8    1    4 1
     9    1   60 1
    10   25   38 1
    11    2    4 1
    12    4   12 1
    13    2    9 1
    14   24   40 1
    15   25   39 1
    16   24   25 1
    17   25   26 1
    18   24   41 1
    19   23   24 1
    20    3    9 1
    21    5    9 2
    22   12   29 1
    23   12   28 1
    24    5   12 1
    25   26   37 1
    26   26   36 1
    27   26   27 1
    28    3   11 1
    29    5   13 1
    30   23   42 1
    31   23   43 1
    32   22   23 1
    33   27   35 1
    34   22   27 1
    35   27   34 1
    36   22   33 1
    37   11   13 2
    38   13   14 1
    39   10   22 1
    40   11   56 1
    41   14   30 1
    42    6   14 1
    43   14   31 1
    44    6   15 1
    45   10   15 1
    46   10   32 1
    47   21   47 1
    48    8   15 2
    49   21   46 1
    50   20   21 1
    51   16   21 1
    52   20   49 1
    53    8   44 1
    54    8   16 1
    55   20   48 1
    56   19   20 1
    57   16   45 1
    58   16   17 1
    59   17   54 1
    60   19   51 1
    61   19   50 1
    62   18   19 1
    63   17   55 1
    64   17   18 1
    65   18   53 1
    66   18   52 1
