@<TRIPOS>MOLECULE
CPB_940_1C8K
   49    52     0     0     0
SMALL
USER_CHARGES

@<TRIPOS>ATOM
      1 C1         43.6080   40.0770   27.8640 C.3       1 <0>        -0.0430
      2 C2         38.7090   31.9770   26.4170 C.ar      1 <0>        -0.0610
      3 C3         39.1330   32.7750   25.2970 C.ar      1 <0>        -0.0603
      4 C4         38.4000   32.5920   27.6640 C.ar      1 <0>        -0.0507
      5 C5         39.2310   34.1870   25.4410 C.ar      1 <0>        -0.0427
      6 C6         38.3120   37.7460   33.2850 C.ar      1 <0>        -0.0010
      7 C7         37.1540   34.1700   29.9490 C.2       1 <0>         0.0170
      8 C8         40.1800   39.2250   29.4250 C.3       1 <0>        -0.0030
      9 C9         41.2240   39.6490   28.3510 C.3       1 <0>        -0.0314
     10 C10        43.0260   38.3180   29.4190 C.3       1 <0>        -0.0049
     11 C11        38.4970   34.0180   27.8170 C.ar      1 <0>         0.0239
     12 C12        38.9230   34.8060   26.6740 C.ar      1 <0>         0.0506
     13 C13        37.4860   36.6450   32.9650 C.ar      1 <0>         0.0883
     14 C14        39.3360   38.1830   32.3920 C.ar      1 <0>         0.0810
     15 C15        36.8480   34.7840   31.2610 C.2       1 <0>         0.1935
     16 C16        38.1580   34.6600   29.1780 C.2       1 <0>         0.0953
     17 C17        37.6840   35.9780   31.7160 C.ar      1 <0>         0.0822
     18 C18        39.5350   37.5130   31.1380 C.ar      1 <0>         0.0195
     19 C19        38.6990   36.4150   30.8150 C.ar      1 <0>         0.1023
     20 C20        40.6120   37.8860   30.0840 C.3       1 <0>         0.0248
     21 C21        42.0980   37.9350   30.6030 C.3       1 <0>         0.1019
     22 N1         42.6230   39.6510   28.8790 N.4       1 <0>         0.2349
     23 O1         36.5010   36.2430   33.8840 O.3       1 <0>        -0.3590
     24 O2         40.1330   39.2620   32.7390 O.3       1 <0>        -0.3594
     25 O3         42.3800   38.9180   31.6090 O.3       1 <0>        -0.3859
     26 O4         35.9610   34.3380   31.9540 O.2       1 <0>        -0.2870
     27 O5         38.8860   35.7310   29.5890 O.3       1 <0>        -0.3074
     28 Cl1        39.0800   36.5310   26.7370 Cl        1 <0>        -0.0828
     29 H1         44.6169   40.0609   28.3020 H         1 <0>         0.0778
     30 H2         43.5701   39.3902   27.0056 H         1 <0>         0.0778
     31 H3         43.3704   41.0972   27.5283 H         1 <0>         0.0778
     32 H4         38.6246   30.9055   26.3114 H         1 <0>         0.0618
     33 H5         39.3748   32.3058   24.3548 H         1 <0>         0.0618
     34 H6         38.0907   31.9827   28.5004 H         1 <0>         0.0625
     35 H7         39.5432   34.7907   24.6017 H         1 <0>         0.0632
     36 H8         38.1660   38.2653   34.2206 H         1 <0>         0.0669
     37 H9         36.5746   33.3267   29.6031 H         1 <0>         0.0682
     38 H10        40.1143   40.0059   30.1969 H         1 <0>         0.0324
     39 H11        39.1981   39.0950   28.9466 H         1 <0>         0.0324
     40 H12        41.1693   38.9385   27.5130 H         1 <0>         0.0814
     41 H13        40.9792   40.6658   28.0101 H         1 <0>         0.0814
     42 H14        44.0674   38.3648   29.7702 H         1 <0>         0.0840
     43 H15        42.9397   37.5604   28.6262 H         1 <0>         0.0840
     44 H16        40.6474   37.0669   29.3506 H         1 <0>         0.0379
     45 H17        42.2632   36.9374   31.0360 H         1 <0>         0.0653
     46 H18        42.6218   40.3167   29.6253 H         1 <0>         0.2031
     47 H19        36.0252   35.4991   33.5337 H         1 <0>         0.2173
     48 H20        40.7616   39.4277   32.0462 H         1 <0>         0.2173
     49 H21        41.8446   38.7499   32.3755 H         1 <0>         0.2101
@<TRIPOS>BOND
     1    1   22 1
     2    2    3 ar
     3    2    4 ar
     4    3    5 ar
     5    4   11 ar
     6    5   12 ar
     7    6   13 ar
     8    6   14 ar
     9    7   15 1
    10    7   16 2
    11    8    9 1
    12    8   20 1
    13    9   22 1
    14   10   21 1
    15   10   22 1
    16   11   12 ar
    17   11   16 1
    18   12   28 1
    19   13   17 ar
    20   13   23 1
    21   14   18 ar
    22   14   24 1
    23   15   17 1
    24   15   26 2
    25   16   27 1
    26   17   19 ar
    27   18   19 ar
    28   18   20 1
    29   19   27 1
    30   20   21 1
    31   21   25 1
    32    1   29 1
    33    1   30 1
    34    1   31 1
    35    2   32 1
    36    3   33 1
    37    4   34 1
    38    5   35 1
    39    6   36 1
    40    7   37 1
    41    8   38 1
    42    8   39 1
    43    9   40 1
    44    9   41 1
    45   10   42 1
    46   10   43 1
    47   20   44 1
    48   21   45 1
    49   22   46 1
    50   23   47 1
    51   24   48 1
    52   25   49 1
