@<TRIPOS>MOLECULE
VIA
   33    36     0     0     0
SMALL
NO_CHARGES

@<TRIPOS>ATOM
      1 C1         -0.1320   61.4670   80.1200 C.3       1 VIA777      0.0000
      2 C2         -0.1690   61.7920   81.5890 C.3       1 VIA777      0.0000
      3 C3         -1.2610   62.8640   81.9270 C.3       1 VIA777      0.0000
      4 C4         -1.1140   63.0310   83.4050 C.2       1 VIA777      0.0000
      5 N1         -1.7980   62.2800   84.3700 N.2       1 VIA777      0.0000
      6 N2         -1.4140   62.6960   85.6120 N.pl3     1 VIA777      0.0000
      7 C5         -1.9480   62.1110   86.8450 C.3       1 VIA777      0.0000
      8 C6         -0.4950   63.7000   85.4400 C.2       1 VIA777      0.0000
      9 C7          0.2600   64.5190   86.3460 C.2       1 VIA777      0.0000
     10 O1          0.1800   64.4220   87.5490 O.2       1 VIA777      0.0000
     11 N3          1.1250   65.4740   85.8160 N.am      1 VIA777      0.0000
     12 C8          1.3080   65.6840   84.4420 C.2       1 VIA777      0.0000
     13 N4          0.5970   64.9070   83.5200 N.2       1 VIA777      0.0000
     14 C9         -0.2930   63.9280   84.0460 C.2       1 VIA777      0.0000
     15 C10         2.2230   66.7020   84.0580 C.ar      1 VIA777      0.0000
     16 C11         1.7310   67.6550   83.0840 C.ar      1 VIA777      0.0000
     17 C12         2.5680   68.7580   82.6170 C.ar      1 VIA777      0.0000
     18 C13         3.9520   68.8600   83.1800 C.ar      1 VIA777      0.0000
     19 C14         4.4660   67.9110   84.1620 C.ar      1 VIA777      0.0000
     20 C15         3.6090   66.8060   84.6330 C.ar      1 VIA777      0.0000
     21 O2          4.0190   65.8300   85.6200 O.3       1 VIA777      0.0000
     22 C16         5.3040   65.8030   86.2730 C.3       1 VIA777      0.0000
     23 C17         5.2340   64.6230   87.2280 C.3       1 VIA777      0.0000
     24 S1          2.0230   69.8310   81.5610 S.o2      1 VIA777      0.0000
     25 O3          2.3130   69.6000   80.2940 O.2       1 VIA777      0.0000
     26 O4          0.7120   69.8610   81.6110 O.2       1 VIA777      0.0000
     27 N5          2.6900   71.1590   82.1270 N.pl3     1 VIA777      0.0000
     28 C18         1.7240   72.0870   82.9630 C.2       1 VIA777      0.0000
     29 C19         0.8200   73.0570   82.1780 C.2       1 VIA777      0.0000
     30 N6          1.4260   73.6860   80.9560 N.pl3     1 VIA777      0.0000
     31 C20         1.5570   75.1560   81.2010 C.3       1 VIA777      0.0000
     32 C21         2.7520   73.1450   80.4160 C.2       1 VIA777      0.0000
     33 C22         3.5390   72.0920   81.2850 C.2       1 VIA777      0.0000
@<TRIPOS>BOND
     1    1    2 1
     2   24   25 2
     3   30   32 1
     4   32   33 2
     5   30   31 1
     6   29   30 1
     7   27   33 1
     8   24   26 2
     9   24   27 1
    10   17   24 1
    11    2    3 1
    12    3    4 1
    13   27   28 1
    14   28   29 2
    15   16   17 ar
    16   17   18 ar
    17   15   16 ar
    18   18   19 ar
    19    4   14 1
    20    4    5 2
    21   13   14 1
    22   12   13 2
    23    8   14 2
    24   12   15 1
    25   15   20 ar
    26   19   20 ar
    27    5    6 1
    28   11   12 1
    29   20   21 1
    30    6    8 1
    31    8    9 1
    32    6    7 1
    33   21   22 1
    34    9   11 am
    35   22   23 1
    36    9   10 2
