@<TRIPOS>MOLECULE
E4D_600_1SJ0
   63    67     0     0     0
SMALL
USER_CHARGES

@<TRIPOS>ATOM
      1 C1         32.6800    1.3800   27.3730 C.ar      1 <0>        -0.0550
      2 C2         33.5190    0.2030   29.3110 C.ar      1 <0>        -0.0550
      3 C3         32.6480   -2.7670   26.4480 C.ar      1 <0>        -0.0536
      4 C4         31.0470   -1.1710   25.6230 C.ar      1 <0>        -0.0536
      5 C5         33.9320    1.9870   27.2050 C.ar      1 <0>        -0.0316
      6 C6         34.7830    0.7840   29.1430 C.ar      1 <0>        -0.0316
      7 C7         33.0730   -3.0500   25.1480 C.ar      1 <0>        -0.0313
      8 C8         31.4550   -1.4710   24.2950 C.ar      1 <0>        -0.0313
      9 C9         26.7240   -2.5350   27.0030 C.ar      1 <0>        -0.0294
     10 C10        27.9320   -2.9010   27.5800 C.ar      1 <0>        -0.0281
     11 C11        27.2840   -0.2150   27.4260 C.ar      1 <0>        -0.0160
     12 C12        31.1870   -2.9120   17.8130 C.3       1 <0>        -0.0434
     13 C13        30.5570   -3.2640   19.1770 C.3       1 <0>        -0.0123
     14 C14        32.4130   -3.8420   17.6170 C.3       1 <0>        -0.0123
     15 C15        31.5970   -3.2410   20.3190 C.3       1 <0>        -0.0318
     16 C16        33.4340   -3.6740   18.7760 C.3       1 <0>        -0.0318
     17 C17        33.6550   -4.3840   21.2060 C.3       1 <0>        -0.0074
     18 C18        34.0020   -3.4000   22.3460 C.3       1 <0>         0.0940
     19 C19        31.6300   -1.8400   26.7020 C.ar      1 <0>        -0.0169
     20 C20        32.4700    0.4800   28.4200 C.ar      1 <0>        -0.0311
     21 C21        34.9760    1.6980   28.0990 C.ar      1 <0>         0.0726
     22 C22        32.4960   -2.3520   24.0600 C.ar      1 <0>         0.0764
     23 C23        26.3460   -1.1830   27.0310 C.ar      1 <0>         0.0738
     24 C24        28.8610   -1.9480   27.9670 C.ar      1 <0>         0.0906
     25 C25        28.5550   -0.5630   27.8540 C.ar      1 <0>         0.0410
     26 C26        31.2760   -1.6690   28.1770 C.3       1 <0>         0.1063
     27 C27        31.1720   -0.2380   28.7070 C.3       1 <0>         0.0656
     28 N1         32.8000   -4.0120   20.0540 N.4       1 <0>         0.2369
     29 O1         36.1910    2.2510   27.9230 O.3       1 <0>        -0.3598
     30 O2         25.1280   -0.8570   26.5840 O.3       1 <0>        -0.3598
     31 O3         30.0500   -2.3690   28.4310 O.3       1 <0>        -0.3343
     32 O4         32.9110   -2.5720   22.7850 O.3       1 <0>        -0.3394
     33 S1         29.6080    0.4570   28.1910 S.3       1 <0>        -0.1115
     34 H1         31.8749    1.6090   26.6905 H         1 <0>         0.0621
     35 H2         33.3490   -0.4688   30.1394 H         1 <0>         0.0621
     36 H3         33.1161   -3.2758   27.2777 H         1 <0>         0.0622
     37 H4         30.2857   -0.4253   25.7981 H         1 <0>         0.0622
     38 H5         34.0938    2.6760   26.3892 H         1 <0>         0.0643
     39 H6         35.5956    0.5312   29.8079 H         1 <0>         0.0643
     40 H7         33.8354   -3.7950   24.9743 H         1 <0>         0.0643
     41 H8         30.9480   -1.0072   23.4618 H         1 <0>         0.0643
     42 H9         26.0873   -3.2754   26.5416 H         1 <0>         0.0644
     43 H10        28.1522   -3.9476   27.7302 H         1 <0>         0.0644
     44 H11        27.0071    0.8285   27.3953 H         1 <0>         0.0655
     45 H12        30.4572   -3.0704   17.0054 H         1 <0>         0.0269
     46 H13        31.5037   -1.8586   17.8014 H         1 <0>         0.0269
     47 H14        29.7719   -2.5272   19.4020 H         1 <0>         0.0317
     48 H15        30.1259   -4.2741   19.1147 H         1 <0>         0.0317
     49 H16        32.0685   -4.8864   17.5936 H         1 <0>         0.0317
     50 H17        32.9061   -3.5869   16.6674 H         1 <0>         0.0317
     51 H18        31.8962   -2.1950   20.4810 H         1 <0>         0.0814
     52 H19        31.1199   -3.6594   21.2175 H         1 <0>         0.0814
     53 H20        34.2903   -4.3434   18.6064 H         1 <0>         0.0814
     54 H21        33.7810   -2.6306   18.8067 H         1 <0>         0.0814
     55 H22        34.6222   -4.6703   20.7672 H         1 <0>         0.0837
     56 H23        33.1332   -5.2199   21.6949 H         1 <0>         0.0837
     57 H24        34.3395   -3.9933   23.2086 H         1 <0>         0.0619
     58 H25        34.8005   -2.7362   21.9831 H         1 <0>         0.0619
     59 H26        32.1332   -2.0854   28.7263 H         1 <0>         0.0666
     60 H27        31.1028   -0.1432   29.8007 H         1 <0>         0.0493
     61 H28        32.4691   -4.9419   19.8937 H         1 <0>         0.2034
     62 H29        36.7770    1.9540   28.6092 H         1 <0>         0.2173
     63 H30        25.0035    0.0818   26.6590 H         1 <0>         0.2173
@<TRIPOS>BOND
     1    1    5 ar
     2    1   20 ar
     3    2    6 ar
     4    2   20 ar
     5    3    7 ar
     6    3   19 ar
     7    4    8 ar
     8    4   19 ar
     9    5   21 ar
    10    6   21 ar
    11    7   22 ar
    12    8   22 ar
    13    9   10 ar
    14    9   23 ar
    15   10   24 ar
    16   11   23 ar
    17   11   25 ar
    18   12   13 1
    19   12   14 1
    20   13   15 1
    21   14   16 1
    22   15   28 1
    23   16   28 1
    24   17   18 1
    25   17   28 1
    26   18   32 1
    27   19   26 1
    28   20   27 1
    29   21   29 1
    30   22   32 1
    31   23   30 1
    32   24   25 ar
    33   24   31 1
    34   25   33 1
    35   26   27 1
    36   26   31 1
    37   27   33 1
    38    1   34 1
    39    2   35 1
    40    3   36 1
    41    4   37 1
    42    5   38 1
    43    6   39 1
    44    7   40 1
    45    8   41 1
    46    9   42 1
    47   10   43 1
    48   11   44 1
    49   12   45 1
    50   12   46 1
    51   13   47 1
    52   13   48 1
    53   14   49 1
    54   14   50 1
    55   15   51 1
    56   15   52 1
    57   16   53 1
    58   16   54 1
    59   17   55 1
    60   17   56 1
    61   18   57 1
    62   18   58 1
    63   26   59 1
    64   27   60 1
    65   28   61 1
    66   29   62 1
    67   30   63 1
