@<TRIPOS>MOLECULE
L8I_1_3M2W
   49    54     0     0     0
SMALL
USER_CHARGES

@<TRIPOS>ATOM
      1 C1         36.3460    4.5230   22.9320 C.3       1 <0>        -0.0430
      2 C2         35.1280    4.5510   11.0110 C.ar      1 <0>        -0.0610
      3 C3         34.2310    3.6720   11.6260 C.ar      1 <0>        -0.0590
      4 C4         36.2080    5.0540   11.7280 C.ar      1 <0>        -0.0498
      5 C5         34.3920    3.3180   12.9550 C.ar      1 <0>        -0.0258
      6 C6         37.4800    5.5440   15.1400 C.ar      1 <0>        -0.0264
      7 C7         39.6670    6.1750   13.5520 C.ar      1 <0>         0.0321
      8 C8         40.9670    7.0940   15.5330 C.3       1 <0>        -0.0216
      9 C9         40.6590    7.9360   16.8000 C.3       1 <0>        -0.0211
     10 C10        37.9850    4.8390   21.0540 C.3       1 <0>        -0.0110
     11 C11        36.2040    5.9810   20.8300 C.3       1 <0>        -0.0110
     12 C12        38.1820    7.3490   21.6740 C.2       1 <0>         0.0310
     13 C13        36.3700    4.6900   13.0540 C.ar      1 <0>         0.0355
     14 C14        35.4680    3.8250   13.6740 C.ar      1 <0>         0.1325
     15 C15        38.6120    6.1180   15.7060 C.ar      1 <0>         0.0030
     16 C16        37.5130    5.2770   13.7690 C.ar      1 <0>         0.0743
     17 C17        39.7140    6.4530   14.9180 C.ar      1 <0>        -0.0200
     18 C18        39.6180    7.2520   17.6360 C.2       1 <0>        -0.0115
     19 C19        39.3690    7.3240   19.0810 C.2       1 <0>         0.0644
     20 C20        38.6800    6.4310   17.1550 C.2       1 <0>         0.0428
     21 C21        38.2930    6.5310   19.2680 C.2       1 <0>         0.0428
     22 C22        40.0070    8.0830   20.1680 C.2       1 <0>         0.2789
     23 C23        37.7020    6.3020   20.6390 C.3       1 <0>         0.1236
     24 N1         37.9170    6.0220   18.1170 N.pl3     1 <0>        -0.3155
     25 N2         38.5820    5.6040   13.0200 N.ar      1 <0>        -0.2546
     26 N3         39.4130    8.0790   21.3760 N.2       1 <0>        -0.2200
     27 N4         36.5710    4.6780   21.4640 N.4       1 <0>         0.2352
     28 O1         41.0140    8.7550   19.9850 O.2       1 <0>        -0.2652
     29 F1         35.6060    3.4560   14.9520 F         1 <0>        -0.2048
     30 H1         35.2695    4.4111   23.1287 H         1 <0>         0.0778
     31 H2         36.8791    3.6308   23.2923 H         1 <0>         0.0778
     32 H3         36.7238    5.4129   23.4567 H         1 <0>         0.0778
     33 H4         34.9821    4.8389    9.9803 H         1 <0>         0.0618
     34 H5         33.4059    3.2659   11.0598 H         1 <0>         0.0618
     35 H6         36.9132    5.7217   11.2555 H         1 <0>         0.0625
     36 H7         33.6862    2.6524   13.4296 H         1 <0>         0.0646
     37 H8         36.6095    5.3135   15.7362 H         1 <0>         0.0645
     38 H9         40.5093    6.4217   12.9227 H         1 <0>         0.0833
     39 H10        41.4212    7.7556   14.7807 H         1 <0>         0.0317
     40 H11        41.6639    6.2904   15.8134 H         1 <0>         0.0317
     41 H12        41.5796    8.0516   17.3908 H         1 <0>         0.0317
     42 H13        40.2867    8.9254   16.4958 H         1 <0>         0.0317
     43 H14        38.3466    4.1655   20.2631 H         1 <0>         0.0829
     44 H15        38.7433    4.6885   21.8365 H         1 <0>         0.0829
     45 H16        35.6232    6.6834   21.4458 H         1 <0>         0.0829
     46 H17        35.5897    5.9310   19.9189 H         1 <0>         0.0829
     47 H18        37.6278    7.5331   22.5825 H         1 <0>         0.0797
     48 H19        37.1428    5.4001   17.9995 H         1 <0>         0.1519
     49 H20        36.0524    3.8641   21.2020 H         1 <0>         0.2031
@<TRIPOS>BOND
     1    1   27 1
     2    2    3 ar
     3    2    4 ar
     4    3    5 ar
     5    4   13 ar
     6    5   14 ar
     7    6   15 ar
     8    6   16 ar
     9    7   17 ar
    10    7   25 ar
    11    8    9 1
    12    8   17 1
    13    9   18 1
    14   10   23 1
    15   10   27 1
    16   11   23 1
    17   11   27 1
    18   12   23 1
    19   12   26 2
    20   13   14 ar
    21   13   16 1
    22   14   29 1
    23   15   17 ar
    24   15   20 1
    25   16   25 ar
    26   18   19 1
    27   18   20 2
    28   19   21 2
    29   19   22 1
    30   20   24 1
    31   21   23 1
    32   21   24 1
    33   22   26 1
    34   22   28 2
    35    1   30 1
    36    1   31 1
    37    1   32 1
    38    2   33 1
    39    3   34 1
    40    4   35 1
    41    5   36 1
    42    6   37 1
    43    7   38 1
    44    8   39 1
    45    8   40 1
    46    9   41 1
    47    9   42 1
    48   10   43 1
    49   10   44 1
    50   11   45 1
    51   11   46 1
    52   12   47 1
    53   24   48 1
    54   27   49 1
