@<TRIPOS>MOLECULE
THM_A4970_2B8T
   31    32     0     0     0
SMALL
USER_CHARGES

@<TRIPOS>ATOM
      1 C1         -6.2470    6.4310   36.8180 C.3       1 <0>        -0.0336
      2 C2         -8.5650    5.5830   36.2520 C.2       1 <0>         0.0111
      3 C3        -11.2750    5.9610   34.9130 C.3       1 <0>         0.0193
      4 C4        -10.0180    4.1200   32.4090 C.3       1 <0>         0.0729
      5 C5         -7.5470    5.7640   37.1890 C.2       1 <0>         0.0258
      6 C6         -7.7760    5.2860   38.5820 C.2       1 <0>         0.2484
      7 C7         -9.8910    4.5310   37.9590 C.2       1 <0>         0.3146
      8 C8        -11.8520    5.3220   33.6630 C.3       1 <0>         0.0874
      9 C9        -10.8140    4.7410   35.6920 C.3       1 <0>         0.1354
     10 C10       -11.0890    4.0170   33.4850 C.3       1 <0>         0.1098
     11 N1         -8.9350    4.6940   38.8810 N.am      1 <0>        -0.2359
     12 N2         -9.7080    4.9760   36.6280 N.am      1 <0>        -0.2347
     13 O1        -10.6120    3.8570   31.1350 O.3       1 <0>        -0.3924
     14 O2        -13.2360    5.0210   33.8860 O.3       1 <0>        -0.3890
     15 O3         -6.9050    5.4200   39.4670 O.2       1 <0>        -0.2701
     16 O4        -10.9610    3.9680   38.2880 O.2       1 <0>        -0.2518
     17 O5        -10.4610    3.7370   34.7350 O.3       1 <0>        -0.3502
     18 H1         -6.3312    7.5156   36.9810 H         1 <0>         0.0280
     19 H2         -5.4368    6.0282   37.4436 H         1 <0>         0.0280
     20 H3         -6.0242    6.2358   35.7586 H         1 <0>         0.0280
     21 H4         -8.4382    5.9259   35.2357 H         1 <0>         0.0790
     22 H5        -10.4456    6.6465   34.6847 H         1 <0>         0.0333
     23 H6        -12.0247    6.5476   35.4642 H         1 <0>         0.0333
     24 H7         -9.5855    5.1314   32.4135 H         1 <0>         0.0584
     25 H8         -9.2243    3.3842   32.6058 H         1 <0>         0.0584
     26 H9        -11.7667    5.9798   32.7855 H         1 <0>         0.0621
     27 H10       -11.6454    4.4287   36.3410 H         1 <0>         0.0814
     28 H11       -11.7870    3.2256   33.1744 H         1 <0>         0.0646
     29 H12        -9.0916    4.3659   39.8126 H         1 <0>         0.1594
     30 H13        -9.9493    3.9194   30.4572 H         1 <0>         0.2095
     31 H14       -13.6030    4.6206   33.1066 H         1 <0>         0.2099
@<TRIPOS>BOND
     1    1    5 1
     2    2    5 2
     3    2   12 1
     4    3    8 1
     5    3    9 1
     6    4   10 1
     7    4   13 1
     8    5    6 1
     9    6   11 am
    10    6   15 2
    11    7   11 am
    12    7   12 am
    13    7   16 2
    14    8   10 1
    15    8   14 1
    16    9   12 1
    17    9   17 1
    18   10   17 1
    19    1   18 1
    20    1   19 1
    21    1   20 1
    22    2   21 1
    23    3   22 1
    24    3   23 1
    25    4   24 1
    26    4   25 1
    27    8   26 1
    28    9   27 1
    29   10   28 1
    30   11   29 1
    31   13   30 1
    32   14   31 1
