@<TRIPOS>MOLECULE
MRK_501_3F9M
   35    37     0     0     0
SMALL
USER_CHARGES

@<TRIPOS>ATOM
      1 C1        -13.1550    6.8740   19.7340 C.3       1 <0>         0.0071
      2 C2        -10.7470    7.8260   22.3210 C.2       1 <0>         0.0442
      3 C3         -8.4000   -2.8120   23.2110 C.2       1 <0>         0.0368
      4 C4        -11.7030    8.1420   21.3690 C.2       1 <0>         0.0164
      5 C5         -7.7610   -3.4020   22.1330 C.2       1 <0>        -0.0030
      6 C6         -9.8100    2.5350   20.4960 C.ar      1 <0>        -0.0312
      7 C7         -8.5790    3.9610   18.4690 C.ar      1 <0>        -0.0039
      8 C8         -8.7240    1.9900   19.8170 C.ar      1 <0>         0.0589
      9 C9         -8.1040    2.7000   18.7890 C.ar      1 <0>         0.0396
     10 C10        -9.6680    4.5020   19.1430 C.ar      1 <0>         0.1389
     11 C11       -10.2840    3.7910   20.1680 C.ar      1 <0>         0.0513
     12 C12        -8.3710   -1.0920   21.8220 C.2       1 <0>         0.1646
     13 C13       -11.4480    6.0510   21.4100 C.2       1 <0>         0.1649
     14 C14        -8.2670    0.6360   20.2250 C.2       1 <0>         0.2515
     15 N1         -7.0470    2.1990   18.0970 N.pl3     1 <0>        -0.3573
     16 N2         -8.7310   -1.5050   23.0230 N.2       1 <0>        -0.2330
     17 N3        -10.5840    6.4790   22.3400 N.2       1 <0>        -0.2322
     18 N4         -8.6010    0.1890   21.4320 N.am      1 <0>        -0.2606
     19 N5        -12.1380    7.0100   20.8020 N.pl3     1 <0>        -0.2877
     20 O1         -7.6480   -0.0420   19.4370 O.2       1 <0>        -0.2697
     21 F1        -10.1000    5.7320   18.7800 F         1 <0>        -0.2043
     22 S1         -7.5780   -2.2750   20.8330 S.3       1 <0>        -0.0605
     23 S2        -11.6550    4.3790   21.0020 S.3       1 <0>        -0.0512
     24 H1        -13.2881    5.8104   19.4870 H         1 <0>         0.0432
     25 H2        -14.1110    7.2916   20.0829 H         1 <0>         0.0432
     26 H3        -12.8215    7.4192   18.8388 H         1 <0>         0.0432
     27 H4        -10.2198    8.5335   22.9438 H         1 <0>         0.0843
     28 H5         -8.6176   -3.3447   24.1249 H         1 <0>         0.0835
     29 H6        -12.0416    9.1380   21.1246 H         1 <0>         0.0799
     30 H7         -7.4226   -4.4273   22.1074 H         1 <0>         0.0709
     31 H8        -10.2859    1.9720   21.2853 H         1 <0>         0.0638
     32 H9         -8.0982    4.5303   17.6873 H         1 <0>         0.0665
     33 H10        -6.8240    1.2873   18.4420 H         1 <0>         0.1423
     34 H11        -7.2818    2.1398   17.1268 H         1 <0>         0.1423
     35 H12        -9.0370    0.8181   22.0756 H         1 <0>         0.1571
@<TRIPOS>BOND
     1    1   19 1
     2    2    4 2
     3    2   17 1
     4    3    5 2
     5    3   16 1
     6    4   19 1
     7    5   22 1
     8    6    8 ar
     9    6   11 ar
    10    7    9 ar
    11    7   10 ar
    12    8    9 ar
    13    8   14 1
    14    9   15 1
    15   10   11 ar
    16   10   21 1
    17   11   23 1
    18   12   16 2
    19   12   18 1
    20   12   22 1
    21   13   17 2
    22   13   19 1
    23   13   23 1
    24   14   18 am
    25   14   20 2
    26    1   24 1
    27    1   25 1
    28    1   26 1
    29    2   27 1
    30    3   28 1
    31    4   29 1
    32    5   30 1
    33    6   31 1
    34    7   32 1
    35   15   33 1
    36   15   34 1
    37   18   35 1
