@<TRIPOS>MOLECULE
*****
   36    38     0     0     0
SMALL
USER_CHARGES

@<TRIPOS>ATOM
      1 C1         35.4800   -0.4750  -28.2400 C.3       1 <0>        -0.0372
      2 C2         30.4310   -1.0870  -27.3110 C.3       1 <0>        -0.0258
      3 C3         36.7490   -8.2550  -29.3610 C.ar      1 <0>        -0.0247
      4 C4         35.3630   -8.3330  -29.0510 C.ar      1 <0>        -0.0372
      5 C5         36.7290   -5.7850  -29.0920 C.ar      1 <0>        -0.0168
      6 C6         34.5760   -3.5460  -28.3710 C.2       1 <0>        -0.0275
      7 C7         34.1100   -1.0460  -28.0240 C.2       1 <0>        -0.0158
      8 C8         31.8840   -1.2200  -27.6050 C.2       1 <0>         0.0175
      9 C9         37.4160   -6.9940  -29.3790 C.ar      1 <0>         0.1241
     10 C10        34.6920   -7.1320  -28.7700 C.ar      1 <0>         0.0417
     11 C11        35.3420   -5.8670  -28.7840 C.ar      1 <0>         0.0111
     12 C12        33.7640   -2.3980  -28.0890 C.2       1 <0>         0.0356
     13 C13        32.9100   -0.2910  -27.7180 C.2       1 <0>         0.0578
     14 C14        34.2960   -4.8670  -28.4420 C.2       1 <0>         0.0478
     15 C15        33.0150   -5.6470  -28.2330 C.2       1 <0>         0.2490
     16 C16        32.8040    1.1740  -27.5610 C.2       1 <0>         0.2433
     17 N1         33.7330    1.7470  -26.7100 N.am      1 <0>        -0.3253
     18 N2         32.4170   -2.4670  -27.8280 N.pl3     1 <0>        -0.3172
     19 N3         33.3450   -6.9850  -28.4480 N.am      1 <0>        -0.2809
     20 O1         31.9230   -5.2050  -27.9410 O.2       1 <0>        -0.2698
     21 O2         31.9360    1.8230  -28.1530 O.2       1 <0>        -0.2704
     22 F1         38.7250   -6.9540  -29.6720 F         1 <0>        -0.2055
     23 H1         35.6150   -0.2380  -29.3060 H         1 <0>         0.0278
     24 H2         35.5930    0.4420  -27.6430 H         1 <0>         0.0278
     25 H3         36.2370   -1.2100  -27.9290 H         1 <0>         0.0278
     26 H4         29.8760   -0.9580  -28.2520 H         1 <0>         0.0290
     27 H5         30.0760   -1.9930  -26.7980 H         1 <0>         0.0290
     28 H6         30.2660   -0.2120  -26.6660 H         1 <0>         0.0290
     29 H7         37.3000   -9.1560  -29.5840 H         1 <0>         0.0647
     30 H8         34.8460   -9.2810  -29.0320 H         1 <0>         0.0637
     31 H9         37.2420   -4.8350  -29.1070 H         1 <0>         0.0653
     32 H10        35.6120   -3.3100  -28.5640 H         1 <0>         0.0644
     33 H11        33.7220    2.7340  -26.5490 H         1 <0>         0.1453
     34 H12        34.4150    1.1740  -26.2560 H         1 <0>         0.1453
     35 H13        31.8910   -3.3170  -27.8030 H         1 <0>         0.1519
     36 H14        32.6960   -7.7430  -28.3800 H         1 <0>         0.1552
@<TRIPOS>BOND
     1    9   22 1
     2    3   29 1
     3    3    9 ar
     4    5    9 ar
     5    3    4 ar
     6    1   23 1
     7    5   31 1
     8    5   11 ar
     9    4   30 1
    10    4   10 ar
    11   10   11 ar
    12   11   14 1
    13   10   19 1
    14    6   32 1
    15   19   36 1
    16   15   19 am
    17    6   14 2
    18   14   15 1
    19    6   12 1
    20    2   26 1
    21    1    7 1
    22    1   25 1
    23    1   24 1
    24   15   20 2
    25   16   21 2
    26    7   12 2
    27   12   18 1
    28    7   13 1
    29   18   35 1
    30    8   18 1
    31    8   13 2
    32   13   16 1
    33    2    8 1
    34   16   17 am
    35    2   27 1
    36    2   28 1
    37   17   33 1
    38   17   34 1
