@<TRIPOS>MOLECULE
PU2_A1224_1UYG
   36    38     0     0     0
SMALL
USER_CHARGES

@<TRIPOS>ATOM
      1 C1          5.0310   16.0220   25.7110 C.3       1 <0>         0.0430
      2 C2          7.6810   10.0890   22.8450 C.3       1 <0>         0.0430
      3 C3          6.1770   13.6970   24.3390 C.ar      1 <0>        -0.0292
      4 C4          6.6830   12.5560   23.7270 C.ar      1 <0>        -0.0290
      5 C5          3.9210   12.7510   24.2870 C.ar      1 <0>        -0.0257
      6 C6          3.5150   10.5050   23.2700 C.3       1 <0>         0.0311
      7 C7          4.8010   13.7840   24.6080 C.ar      1 <0>         0.0762
      8 C8          5.7960   11.5440   23.4120 C.ar      1 <0>         0.0795
      9 C9          4.4370   11.6390   23.6640 C.ar      1 <0>        -0.0079
     10 C10         2.2550   10.4610   24.0760 C.2       1 <0>         0.1063
     11 C11         0.2840   10.6970   24.8250 C.ar      1 <0>         0.1172
     12 C12        -1.0660   10.8650   25.0730 C.ar      1 <0>         0.1458
     13 C13         1.0480   10.0930   25.7560 C.ar      1 <0>         0.1832
     14 C14        -0.7110    9.9290   27.0940 C.ar      1 <0>         0.3128
     15 N1         -1.9680   11.4750   24.1540 N.pl3     1 <0>        -0.3415
     16 N2          1.0320   10.9440   23.7520 N.pl3     1 <0>        -0.2970
     17 N3          2.2600    9.9580   25.3190 N.2       1 <0>        -0.2151
     18 N4         -1.5560   10.4980   26.2430 N.ar      1 <0>        -0.1854
     19 N5          0.5710    9.6940   26.9140 N.ar      1 <0>        -0.1808
     20 O1          4.2350   14.9180   25.2610 O.3       1 <0>        -0.3479
     21 O2          6.2690   10.3840   22.8050 O.3       1 <0>        -0.3476
     22 F1         -1.3040    9.4820   28.5200 F         1 <0>        -0.1610
     23 H1          4.3819   16.7748   26.1822 H         1 <0>         0.0529
     24 H2          5.7707   15.6661   26.4432 H         1 <0>         0.0529
     25 H3          5.5515   16.4724   24.8529 H         1 <0>         0.0529
     26 H4          7.8732    9.1416   22.3201 H         1 <0>         0.0529
     27 H5          8.2389   10.8999   22.3538 H         1 <0>         0.0529
     28 H6          8.0075   10.0008   23.8917 H         1 <0>         0.0529
     29 H7          6.8363   14.5098   24.6054 H         1 <0>         0.0644
     30 H8          7.7358   12.4633   23.5047 H         1 <0>         0.0644
     31 H9          2.8688   12.8220   24.5200 H         1 <0>         0.0647
     32 H10         3.2425   10.6347   22.2122 H         1 <0>         0.0390
     33 H11         4.0523    9.5569   23.4193 H         1 <0>         0.0390
     34 H12        -2.8776   11.5301   24.5658 H         1 <0>         0.1438
     35 H13        -1.6462   12.3955   23.9326 H         1 <0>         0.1438
     36 H14         0.7537   11.3863   22.8994 H         1 <0>         0.1535
@<TRIPOS>BOND
     1    1   20 1
     2    2   21 1
     3    3    4 ar
     4    3    7 ar
     5    4    8 ar
     6    5    7 ar
     7    5    9 ar
     8    6    9 1
     9    6   10 1
    10    7   20 1
    11    8    9 ar
    12    8   21 1
    13   10   16 1
    14   10   17 2
    15   11   12 ar
    16   11   13 ar
    17   11   16 1
    18   12   15 1
    19   12   18 ar
    20   13   17 1
    21   13   19 ar
    22   14   18 ar
    23   14   19 ar
    24   14   22 1
    25    1   23 1
    26    1   24 1
    27    1   25 1
    28    2   26 1
    29    2   27 1
    30    2   28 1
    31    3   29 1
    32    4   30 1
    33    5   31 1
    34    6   32 1
    35    6   33 1
    36   15   34 1
    37   15   35 1
    38   16   36 1
