@<TRIPOS>MOLECULE
547_201_2OF2
   58    62     0     0     0
SMALL
USER_CHARGES

@<TRIPOS>ATOM
      1 C1         27.0370   41.1890   86.2990 C.ar      1 <0>        -0.0617
      2 C2         31.8890   37.3710   82.7800 C.ar      1 <0>        -0.0617
      3 C3         27.1840   41.2830   84.8650 C.ar      1 <0>        -0.0612
      4 C4         26.7220   39.9280   86.9320 C.ar      1 <0>        -0.0612
      5 C5         31.2050   36.4270   81.9230 C.ar      1 <0>        -0.0611
      6 C6         31.1680   38.1210   83.7630 C.ar      1 <0>        -0.0611
      7 C7         27.0220   40.1120   84.0560 C.ar      1 <0>        -0.0539
      8 C8         26.5620   38.7590   86.1200 C.ar      1 <0>        -0.0539
      9 C9         29.7860   36.2420   82.0450 C.ar      1 <0>        -0.0521
     10 C10        29.7640   37.9300   83.8800 C.ar      1 <0>        -0.0521
     11 C11        22.9540   36.2980   83.5210 C.ar      1 <0>        -0.0219
     12 C12        23.3130   35.2040   82.6920 C.ar      1 <0>         0.0322
     13 C13        24.0340   43.1270   86.4310 C.3       1 <0>         0.0077
     14 C14        23.0980   42.9700   84.1440 C.3       1 <0>         0.0077
     15 C15        23.2340   41.8710   86.8240 C.3       1 <0>         0.0094
     16 C16        22.2740   41.7390   84.5800 C.3       1 <0>         0.0094
     17 C17        22.3130   38.5930   85.2200 C.3       1 <0>         0.0492
     18 C18        22.2460   39.8340   86.1150 C.3       1 <0>        -0.0156
     19 C19        26.7120   38.8560   84.6820 C.ar      1 <0>        -0.0146
     20 C20        29.0530   36.9920   83.0270 C.ar      1 <0>         0.0062
     21 C21        23.9760   37.2040   83.9840 C.ar      1 <0>         0.0407
     22 C22        25.3670   36.9590   83.5920 C.ar      1 <0>         0.0556
     23 C23        26.5570   37.6280   83.8630 C.2       1 <0>         0.0262
     24 C24        27.5720   36.7840   83.1180 C.2       1 <0>         0.1005
     25 C25        25.6330   35.8390   82.7690 C.ar      1 <0>         0.1828
     26 N1         24.6110   34.9970   82.3530 N.ar      1 <0>        -0.2309
     27 N2         23.3110   43.8450   85.3400 N.4       1 <0>         0.2345
     28 N3         23.6700   38.2800   84.7910 N.pl3     1 <0>        -0.3381
     29 N4         23.0260   41.0020   85.6340 N.4       1 <0>         0.2438
     30 O1         26.9560   35.7210   82.4870 O.3       1 <0>        -0.2890
     31 H1         27.1642   42.0728   86.9065 H         1 <0>         0.0618
     32 H2         32.9549   37.5112   82.6769 H         1 <0>         0.0618
     33 H3         27.4151   42.2323   84.4047 H         1 <0>         0.0618
     34 H4         26.6087   39.8681   88.0044 H         1 <0>         0.0618
     35 H5         31.7620   35.8610   81.1910 H         1 <0>         0.0618
     36 H6         31.6821   38.8206   84.4054 H         1 <0>         0.0618
     37 H7         27.1320   40.1725   82.9833 H         1 <0>         0.0624
     38 H8         26.3304   37.8087   86.5779 H         1 <0>         0.0624
     39 H9         29.2726   35.5426   81.4018 H         1 <0>         0.0624
     40 H10        29.2138   38.4940   84.6186 H         1 <0>         0.0624
     41 H11        21.9228   36.4511   83.8033 H         1 <0>         0.0651
     42 H12        22.5494   34.5322   82.3287 H         1 <0>         0.0831
     43 H13        24.1349   43.7883   87.3042 H         1 <0>         0.0867
     44 H14        25.0338   42.8325   86.0794 H         1 <0>         0.0867
     45 H15        24.0690   42.6454   83.7418 H         1 <0>         0.0867
     46 H16        22.5539   43.5267   83.3668 H         1 <0>         0.0867
     47 H17        23.7916   41.3107   87.5890 H         1 <0>         0.0868
     48 H18        22.2563   42.1751   87.2261 H         1 <0>         0.0868
     49 H19        21.3028   42.0666   84.9793 H         1 <0>         0.0868
     50 H20        22.1078   41.0800   83.7151 H         1 <0>         0.0868
     51 H21        21.9215   37.7351   85.7864 H         1 <0>         0.0514
     52 H22        21.6999   38.7768   84.3254 H         1 <0>         0.0514
     53 H23        21.1918   40.1414   86.1795 H         1 <0>         0.0830
     54 H24        22.6409   39.5539   87.1027 H         1 <0>         0.0830
     55 H25        22.4196   44.1385   85.6853 H         1 <0>         0.2018
     56 H26        23.8534   44.6385   85.0641 H         1 <0>         0.2018
     57 H27        23.9750   39.0843   84.2810 H         1 <0>         0.1463
     58 H28        23.8944   40.7173   85.2281 H         1 <0>         0.2038
@<TRIPOS>BOND
     1    1    3 ar
     2    1    4 ar
     3    2    5 ar
     4    2    6 ar
     5    3    7 ar
     6    4    8 ar
     7    5    9 ar
     8    6   10 ar
     9    7   19 ar
    10    8   19 ar
    11    9   20 ar
    12   10   20 ar
    13   11   12 ar
    14   11   21 ar
    15   12   26 ar
    16   13   15 1
    17   13   27 1
    18   14   16 1
    19   14   27 1
    20   15   29 1
    21   16   29 1
    22   17   18 1
    23   17   28 1
    24   18   29 1
    25   19   23 1
    26   20   24 1
    27   21   22 ar
    28   21   28 1
    29   22   23 1
    30   22   25 ar
    31   23   24 2
    32   24   30 1
    33   25   26 ar
    34   25   30 1
    35    1   31 1
    36    2   32 1
    37    3   33 1
    38    4   34 1
    39    5   35 1
    40    6   36 1
    41    7   37 1
    42    8   38 1
    43    9   39 1
    44   10   40 1
    45   11   41 1
    46   12   42 1
    47   13   43 1
    48   13   44 1
    49   14   45 1
    50   14   46 1
    51   15   47 1
    52   15   48 1
    53   16   49 1
    54   16   50 1
    55   17   51 1
    56   17   52 1
    57   18   53 1
    58   18   54 1
    59   27   55 1
    60   27   56 1
    61   28   57 1
    62   29   58 1
