@<TRIPOS>MOLECULE
2IC_1_2ICA
   57    61     0     0     0
SMALL
USER_CHARGES

@<TRIPOS>ATOM
      1 C1        -12.4870    2.4400   28.9310 C.3       1 <0>         0.0059
      2 C2        -10.8020   -2.0610   26.8730 C.ar      1 <0>        -0.0441
      3 C3         -9.1710   -1.4240   25.1750 C.ar      1 <0>        -0.0441
      4 C4        -11.3580   -0.7730   26.8130 C.ar      1 <0>        -0.0568
      5 C5         -9.7220   -0.1330   25.1160 C.ar      1 <0>        -0.0568
      6 C6         -7.2970    1.3340   30.1120 C.ar      1 <0>        -0.0214
      7 C7         -7.1200    0.2360   27.9440 C.ar      1 <0>        -0.0214
      8 C8         -5.3870   -0.1250   29.6500 C.ar      1 <0>        -0.0249
      9 C9        -13.3550    6.3550   23.7660 C.2       1 <0>        -0.0376
     10 C10       -12.7530    8.2560   25.0140 C.2       1 <0>        -0.0150
     11 C11       -11.4780    2.4260   24.8100 C.3       1 <0>        -0.0218
     12 C12       -10.9490    3.9460   26.5410 C.3       1 <0>         0.0001
     13 C13       -11.4910    4.6370   24.1370 C.3       1 <0>         0.0005
     14 C14        -9.1980   -3.7090   26.0550 C.1       1 <0>         0.0992
     15 C15        -9.7150   -2.3790   26.0470 C.ar      1 <0>         0.0518
     16 C16       -10.8010    0.2210   25.9750 C.ar      1 <0>        -0.0365
     17 C17        -7.8190    1.1030   28.8260 C.ar      1 <0>         0.0482
     18 C18        -6.1080    0.7090   30.5060 C.ar      1 <0>         0.0441
     19 C19        -5.9170   -0.3460   28.3750 C.ar      1 <0>         0.0441
     20 C20       -13.6670    7.7260   24.1900 C.2       1 <0>         0.0048
     21 C21       -12.1830    5.9530   24.2900 C.2       1 <0>         0.0348
     22 C22       -11.3600    1.6130   26.0770 C.3       1 <0>         0.0593
     23 C23        -9.2020    2.2330   27.2230 C.2       1 <0>         0.2572
     24 C24       -10.1350    1.7020   29.1900 C.2       1 <0>         0.3164
     25 C25       -14.8570    8.4870   23.7440 C.2       1 <0>         0.0722
     26 C26       -10.7030    2.5370   27.0990 C.3       1 <0>         0.1667
     27 N1         -8.8040   -4.7980   26.0330 N.1       1 <0>        -0.1909
     28 N2        -11.7360    3.7710   25.2940 N.4       1 <0>         0.2413
     29 N3        -11.1120    2.2600   28.4660 N.am      1 <0>        -0.2684
     30 N4         -8.9920    1.6820   28.4480 N.am      1 <0>        -0.1920
     31 O1        -15.0660    9.6200   24.2290 O.co2     1 <0>        -0.5446
     32 O2         -8.3850    2.4670   26.3330 O.2       1 <0>        -0.2722
     33 O3        -10.2820    1.2740   30.3330 O.2       1 <0>        -0.2516
     34 O4        -15.6030    7.9730   22.8830 O.co2     1 <0>        -0.5446
     35 S1        -11.3500    7.2220   25.1550 S.3       1 <0>        -0.0957
     36 Cl1        -5.5300    0.9450   32.1050 Cl        1 <0>        -0.0834
     37 Cl2        -5.0550   -1.4000   27.3100 Cl        1 <0>        -0.0834
     38 H1        -13.0816    2.9221   28.1411 H         1 <0>         0.0429
     39 H2        -12.9238    1.4596   29.1718 H         1 <0>         0.0429
     40 H3        -12.4898    3.0736   29.8302 H         1 <0>         0.0429
     41 H4        -11.2078   -2.7993   27.5488 H         1 <0>         0.0630
     42 H5         -8.3291   -1.6812   24.5494 H         1 <0>         0.0630
     43 H6        -12.2232   -0.5380   27.4152 H         1 <0>         0.0621
     44 H7         -9.3270    0.5912   24.4189 H         1 <0>         0.0621
     45 H8         -7.8132    1.9929   30.7945 H         1 <0>         0.0651
     46 H9         -7.5077    0.0278   26.9577 H         1 <0>         0.0651
     47 H10        -4.4581   -0.5808   29.9596 H         1 <0>         0.0647
     48 H11       -13.9797    5.7530   23.1228 H         1 <0>         0.0634
     49 H12       -12.8680    9.2003   25.5253 H         1 <0>         0.0700
     50 H13       -10.5542    2.3816   24.2145 H         1 <0>         0.0821
     51 H14       -12.2971    2.0626   24.1721 H         1 <0>         0.0821
     52 H15       -11.5070    4.5560   27.2666 H         1 <0>         0.0841
     53 H16        -9.9939    4.4480   26.3269 H         1 <0>         0.0841
     54 H17       -11.8697    4.1385   23.2325 H         1 <0>         0.0872
     55 H18       -10.4088    4.8121   24.0460 H         1 <0>         0.0872
     56 H19       -12.3650    1.3105   26.4064 H         1 <0>         0.0429
     57 H20       -12.6620    4.0011   25.5933 H         1 <0>         0.2038
@<TRIPOS>BOND
     1    1   29 1
     2    2    4 ar
     3    2   15 ar
     4    3    5 ar
     5    3   15 ar
     6    4   16 ar
     7    5   16 ar
     8    6   17 ar
     9    6   18 ar
    10    7   17 ar
    11    7   19 ar
    12    8   18 ar
    13    8   19 ar
    14    9   20 1
    15    9   21 2
    16   10   20 2
    17   10   35 1
    18   11   22 1
    19   11   28 1
    20   12   26 1
    21   12   28 1
    22   13   21 1
    23   13   28 1
    24   14   15 1
    25   14   27 3
    26   16   22 1
    27   17   30 1
    28   18   36 1
    29   19   37 1
    30   20   25 1
    31   21   35 1
    32   22   26 1
    33   23   26 1
    34   23   30 am
    35   23   32 2
    36   24   29 am
    37   24   30 am
    38   24   33 2
    39   25   31 1
    40   25   34 2
    41   26   29 1
    42    1   38 1
    43    1   39 1
    44    1   40 1
    45    2   41 1
    46    3   42 1
    47    4   43 1
    48    5   44 1
    49    6   45 1
    50    7   46 1
    51    8   47 1
    52    9   48 1
    53   10   49 1
    54   11   50 1
    55   11   51 1
    56   12   52 1
    57   12   53 1
    58   13   54 1
    59   13   55 1
    60   22   56 1
    61   28   57 1
