@<TRIPOS>MOLECULE
19A_360_2OJG
   37    39     0     0     0
SMALL
USER_CHARGES

@<TRIPOS>ATOM
      1 C1         -9.1600   13.4150   41.2390 C.3       1 <0>         0.0032
      2 C2        -11.4360   14.2250   41.9340 C.3       1 <0>         0.0032
      3 C3        -15.0050   16.8690   43.1270 C.ar      1 <0>        -0.0617
      4 C4        -14.8960   16.4610   41.7790 C.ar      1 <0>        -0.0612
      5 C5        -15.6960   16.0630   44.0740 C.ar      1 <0>        -0.0612
      6 C6        -15.4870   15.2460   41.3680 C.ar      1 <0>        -0.0539
      7 C7        -16.2800   14.8590   43.6720 C.ar      1 <0>        -0.0539
      8 C8        -13.7000   12.3210   41.0960 C.2       1 <0>        -0.0253
      9 C9        -14.5920   11.1230   39.4520 C.2       1 <0>         0.0030
     10 C10       -18.1310   12.7850   42.2610 C.2       1 <0>         0.0551
     11 C11       -16.1830   14.4280   42.3110 C.ar      1 <0>        -0.0145
     12 C12       -14.9110   11.8230   40.5940 C.2       1 <0>         0.0138
     13 C13       -12.6640   11.9330   40.2690 C.2       1 <0>         0.0943
     14 C14       -16.8370   13.1240   41.9330 C.2       1 <0>         0.0248
     15 C15       -16.2930   12.0050   41.1940 C.2       1 <0>         0.0658
     16 C16       -11.1760   12.2240   40.4120 C.2       1 <0>         0.2602
     17 N1        -13.2440   11.1880   39.2590 N.pl3     1 <0>        -0.3159
     18 N2        -17.2510   11.0900   41.1270 N.pl3     1 <0>        -0.2365
     19 N3        -18.3840   11.5640   41.7800 N.2       1 <0>        -0.1898
     20 N4        -10.6260   13.2630   41.1770 N.am      1 <0>        -0.3026
     21 O1        -10.4080   11.4850   39.8100 O.2       1 <0>        -0.2686
     22 H1         -8.6836   12.6326   40.6299 H         1 <0>         0.0428
     23 H2         -8.8774   14.4046   40.8507 H         1 <0>         0.0428
     24 H3         -8.8256   13.3213   42.2828 H         1 <0>         0.0428
     25 H4        -12.5028   13.9941   41.7979 H         1 <0>         0.0428
     26 H5        -11.1801   14.1594   43.0018 H         1 <0>         0.0428
     27 H6        -11.2319   15.2427   41.5698 H         1 <0>         0.0428
     28 H7        -14.5597   17.8013   43.4416 H         1 <0>         0.0618
     29 H8        -14.3639   17.0745   41.0670 H         1 <0>         0.0618
     30 H9        -15.7691   16.3817   45.1033 H         1 <0>         0.0618
     31 H10       -15.4127   14.9336   40.3368 H         1 <0>         0.0624
     32 H11       -16.8072   14.2507   44.3920 H         1 <0>         0.0624
     33 H12       -13.5938   12.9160   41.9910 H         1 <0>         0.0645
     34 H13       -15.2943   10.6072   38.8140 H         1 <0>         0.0788
     35 H14       -18.8243   13.4018   42.8136 H         1 <0>         0.0852
     36 H15       -12.7496   10.7614   38.5016 H         1 <0>         0.1518
     37 H16       -17.1713   10.2000   40.6780 H         1 <0>         0.1744
@<TRIPOS>BOND
     1    1   20 1
     2    2   20 1
     3    3    4 ar
     4    3    5 ar
     5    4    6 ar
     6    5    7 ar
     7    6   11 ar
     8    7   11 ar
     9    8   12 1
    10    8   13 2
    11    9   12 2
    12    9   17 1
    13   10   14 1
    14   10   19 2
    15   11   14 1
    16   12   15 1
    17   13   16 1
    18   13   17 1
    19   14   15 2
    20   15   18 1
    21   16   20 am
    22   16   21 2
    23   18   19 1
    24    1   22 1
    25    1   23 1
    26    1   24 1
    27    2   25 1
    28    2   26 1
    29    2   27 1
    30    3   28 1
    31    4   29 1
    32    5   30 1
    33    6   31 1
    34    7   32 1
    35    8   33 1
    36    9   34 1
    37   10   35 1
    38   17   36 1
    39   18   37 1
