@<TRIPOS>MOLECULE
F89_301_1SYN
   59    63     0     0     0
SMALL
USER_CHARGES

@<TRIPOS>ATOM
      1 C1         12.1070   20.2660   31.8200 C.3       1 <0>        -0.0085
      2 C2         16.9290   14.2140   30.6380 C.ar      1 <0>        -0.0537
      3 C3         15.3250   15.6690   29.5950 C.ar      1 <0>        -0.0520
      4 C4         17.7670   13.9050   31.7110 C.ar      1 <0>        -0.0565
      5 C5         18.3400   10.8050   34.9520 C.ar      1 <0>        -0.0401
      6 C6         17.4800    9.9450   35.6640 C.ar      1 <0>        -0.0476
      7 C7         14.1870   16.4410   29.7980 C.ar      1 <0>        -0.0349
      8 C8         16.9190   15.8370   32.9370 C.ar      1 <0>        -0.0486
      9 C9         16.9390   12.7190   35.5410 C.ar      1 <0>        -0.0354
     10 C10        14.8870   12.1420   36.9880 C.3       1 <0>         0.0414
     11 C11        12.5280    9.3410   37.6720 C.3       1 <0>        -0.0239
     12 C12        11.4820    8.9490   36.6280 C.3       1 <0>        -0.0112
     13 C13        18.7270   14.4680   33.9600 C.3       1 <0>         0.0344
     14 C14        13.1190   19.1680   31.9000 C.2       1 <0>         0.0991
     15 C15        16.0850   15.3290   30.7180 C.ar      1 <0>        -0.0170
     16 C16        17.7930   14.7380   32.8470 C.ar      1 <0>        -0.0298
     17 C17        18.0780   12.1900   34.8990 C.ar      1 <0>         0.0277
     18 C18        16.3710   10.4980   36.3330 C.ar      1 <0>         0.0417
     19 C19        14.1510   17.3180   30.8890 C.ar      1 <0>         0.0783
     20 C20        16.1060   11.8480   36.2470 C.ar      1 <0>        -0.0162
     21 C21        16.0000   16.1130   31.9080 C.ar      1 <0>        -0.0034
     22 C22        14.9940   17.1220   32.0090 C.ar      1 <0>         0.0701
     23 C23        14.7360   17.9660   33.1400 C.2       1 <0>         0.2517
     24 C24        15.3900    9.8680   37.1950 C.2       1 <0>         0.2477
     25 C25        13.0330   10.8010   37.6030 C.3       1 <0>         0.0664
     26 C26        10.6990    7.6760   36.9730 C.2       1 <0>         0.0418
     27 C27        12.5530   11.5850   38.8450 C.2       1 <0>         0.0622
     28 N1         13.8690   18.9970   33.0040 N.am      1 <0>        -0.2699
     29 N2         13.2810   18.3350   30.8590 N.2       1 <0>        -0.2363
     30 N3         18.9910   13.0500   34.1820 N.pl3     1 <0>        -0.3397
     31 N4         14.5070   10.8360   37.5300 N.am      1 <0>        -0.2849
     32 O1         11.1070    6.5910   36.5380 O.co2     1 <0>        -0.5498
     33 O2         12.7940   11.1640   39.9860 O.co2     1 <0>        -0.5479
     34 O3         15.1760   17.7760   34.2730 O.2       1 <0>        -0.2697
     35 O4         15.4310    8.7150   37.6460 O.2       1 <0>        -0.2699
     36 O5          9.6460    7.7460   37.6120 O.co2     1 <0>        -0.5498
     37 O6         11.9920   12.6720   38.6720 O.co2     1 <0>        -0.5479
     38 H1         11.6021   20.2296   30.8434 H         1 <0>         0.0305
     39 H2         11.3643   20.1390   32.6215 H         1 <0>         0.0305
     40 H3         12.6101   21.2373   31.9365 H         1 <0>         0.0305
     41 H4         16.9315   13.5970   29.7516 H         1 <0>         0.0624
     42 H5         15.6116   15.3437   28.6058 H         1 <0>         0.0624
     43 H6         18.3953   13.0275   31.6703 H         1 <0>         0.0621
     44 H7         19.2038   10.4017   34.4445 H         1 <0>         0.0636
     45 H8         17.6679    8.8819   35.6960 H         1 <0>         0.0626
     46 H9         13.3451   16.3657   29.1258 H         1 <0>         0.0639
     47 H10        16.9540   16.4765   33.8066 H         1 <0>         0.0627
     48 H11        16.7158   13.7744   35.4879 H         1 <0>         0.0639
     49 H12        15.0643   12.8774   37.7866 H         1 <0>         0.0514
     50 H13        14.1039   12.5543   36.3348 H         1 <0>         0.0514
     51 H14        12.0741    9.1961   38.6634 H         1 <0>         0.0290
     52 H15        13.3987    8.6843   37.5285 H         1 <0>         0.0290
     53 H16        10.7626    9.7766   36.5414 H         1 <0>         0.0325
     54 H17        12.0024    8.7789   35.6739 H         1 <0>         0.0325
     55 H18        19.6833   14.9595   33.7279 H         1 <0>         0.0511
     56 H19        18.2872   14.8799   34.8803 H         1 <0>         0.0511
     57 H20        12.6230   11.2697   36.6963 H         1 <0>         0.0562
     58 H21        13.7829   19.6556   33.7515 H         1 <0>         0.1562
     59 H22        19.0680   12.6499   33.2688 H         1 <0>         0.1464
@<TRIPOS>BOND
     1    1   14 1
     2    2    4 ar
     3    2   15 ar
     4    3    7 ar
     5    3   15 ar
     6    4   16 ar
     7    5    6 ar
     8    5   17 ar
     9    6   18 ar
    10    7   19 ar
    11    8   16 ar
    12    8   21 ar
    13    9   17 ar
    14    9   20 ar
    15   10   20 1
    16   10   31 1
    17   11   12 1
    18   11   25 1
    19   12   26 1
    20   13   16 1
    21   13   30 1
    22   14   28 1
    23   14   29 2
    24   15   21 ar
    25   17   30 1
    26   18   20 ar
    27   18   24 1
    28   19   22 ar
    29   19   29 1
    30   21   22 ar
    31   22   23 1
    32   23   28 am
    33   23   34 2
    34   24   31 am
    35   24   35 2
    36   25   27 1
    37   25   31 1
    38   26   32 1
    39   26   36 2
    40   27   33 1
    41   27   37 2
    42    1   38 1
    43    1   39 1
    44    1   40 1
    45    2   41 1
    46    3   42 1
    47    4   43 1
    48    5   44 1
    49    6   45 1
    50    7   46 1
    51    8   47 1
    52    9   48 1
    53   10   49 1
    54   10   50 1
    55   11   51 1
    56   11   52 1
    57   12   53 1
    58   12   54 1
    59   13   55 1
    60   13   56 1
    61   25   57 1
    62   28   58 1
    63   30   59 1
