@<TRIPOS>MOLECULE
C4F_1_3C4F
   32    34     0     0     0
SMALL
USER_CHARGES

@<TRIPOS>ATOM
      1 C1          5.4000    2.0210   12.8800 C.3       1 <0>         0.0430
      2 C2          4.2060    5.0210   15.5990 C.ar      1 <0>        -0.0591
      3 C3          8.3000    3.2620   22.4950 C.ar      1 <0>        -0.0429
      4 C4          4.9500    5.2000   16.7580 C.ar      1 <0>        -0.0581
      5 C5          4.6520    4.1380   14.6250 C.ar      1 <0>        -0.0317
      6 C6          8.0430    3.8480   21.2630 C.ar      1 <0>        -0.0496
      7 C7          7.5770    2.1380   22.9120 C.ar      1 <0>         0.0297
      8 C8          6.5540    3.6050   15.9860 C.ar      1 <0>        -0.0282
      9 C9          5.6180    2.5630   18.9920 C.2       1 <0>        -0.0007
     10 C10         6.9400    4.6490   18.2150 C.3       1 <0>        -0.0005
     11 C11         6.1250    4.4960   16.9510 C.ar      1 <0>        -0.0406
     12 C12         5.8310    3.4370   14.8170 C.ar      1 <0>         0.0761
     13 C13         7.0870    3.2210   20.5030 C.ar      1 <0>         0.0197
     14 C14         6.5410    3.5140   19.1600 C.2       1 <0>        -0.0188
     15 C15         6.4020    2.1390   20.9460 C.ar      1 <0>         0.1300
     16 N1          5.5370    1.7580   19.9970 N.pl3     1 <0>        -0.3050
     17 N2          6.6240    1.5970   22.1430 N.ar      1 <0>        -0.2396
     18 O1          6.2850    2.5130   13.8960 O.3       1 <0>        -0.3479
     19 H1          5.9350    1.2995   12.2450 H         1 <0>         0.0529
     20 H2          4.5390    1.5255   13.3525 H         1 <0>         0.0529
     21 H3          5.0471    2.8608   12.2634 H         1 <0>         0.0529
     22 H4          3.2847    5.5662   15.4561 H         1 <0>         0.0618
     23 H5          9.0635    3.6764   23.1367 H         1 <0>         0.0633
     24 H6          4.6092    5.8929   17.5130 H         1 <0>         0.0620
     25 H7          4.0807    3.9979   13.7192 H         1 <0>         0.0643
     26 H8          8.5590    4.7349   20.9261 H         1 <0>         0.0625
     27 H9          7.7926    1.6980   23.8745 H         1 <0>         0.0830
     28 H10         7.4584    3.0363   16.1444 H         1 <0>         0.0646
     29 H11         5.0040    2.4770   18.1077 H         1 <0>         0.0785
     30 H12         8.0135    4.5887   17.9829 H         1 <0>         0.0362
     31 H13         6.7327    5.6224   18.6836 H         1 <0>         0.0362
     32 H14         4.9231    0.9710   20.0580 H         1 <0>         0.1530
@<TRIPOS>BOND
     1    1   18 1
     2    2    4 ar
     3    2    5 ar
     4    3    6 ar
     5    3    7 ar
     6    4   11 ar
     7    5   12 ar
     8    6   13 ar
     9    7   17 ar
    10    8   11 ar
    11    8   12 ar
    12    9   14 2
    13    9   16 1
    14   10   11 1
    15   10   14 1
    16   12   18 1
    17   13   14 1
    18   13   15 ar
    19   15   16 1
    20   15   17 ar
    21    1   19 1
    22    1   20 1
    23    1   21 1
    24    2   22 1
    25    3   23 1
    26    4   24 1
    27    5   25 1
    28    6   26 1
    29    7   27 1
    30    8   28 1
    31    9   29 1
    32   10   30 1
    33   10   31 1
    34   16   32 1
