@<TRIPOS>MOLECULE
D2B_187_3NXO
   46    48     0     0     0
SMALL
USER_CHARGES

@<TRIPOS>ATOM
      1 C1         15.2780    5.5660   -4.4420 C.3       1 <0>        -0.0621
      2 C2         15.7100    7.9530   -3.5200 C.3       1 <0>        -0.0621
      3 C3         14.2450    2.1620   -2.8100 C.3       1 <0>         0.0430
      4 C4         11.1680    6.1160   -1.6290 C.ar      1 <0>        -0.0613
      5 C5         10.9460    4.7340   -1.6950 C.ar      1 <0>        -0.0593
      6 C6         12.4810    6.5950   -1.6690 C.ar      1 <0>        -0.0558
      7 C7         12.0100    3.8410   -1.8470 C.ar      1 <0>        -0.0314
      8 C8         14.9380    5.0850    0.9690 C.2       1 <0>         0.0527
      9 C9         15.9300    6.2520   -0.9910 C.3       1 <0>        -0.0179
     10 C10        13.5610    5.7090   -1.7710 C.ar      1 <0>        -0.0138
     11 C11        13.3400    4.3240   -1.9300 C.ar      1 <0>         0.0793
     12 C12        15.8310    5.9140    0.3830 C.2       1 <0>        -0.0091
     13 C13        16.7780    6.3020    1.3740 C.ar      1 <0>         0.0692
     14 C14        17.8910    7.1780    1.5080 C.ar      1 <0>         0.1314
     15 C15        16.2830    5.7940    2.5590 C.ar      1 <0>         0.1866
     16 C16        17.8910    6.8630    3.7910 C.ar      1 <0>         0.2166
     17 C17        14.9520    6.6890   -3.3980 C.3       1 <0>        -0.0395
     18 C18        14.8550    6.2120   -1.9160 C.3       1 <0>        -0.0070
     19 N1         18.4640    7.8490    0.4940 N.pl3     1 <0>        -0.3425
     20 N2         18.3820    7.1350    5.0000 N.pl3     1 <0>        -0.3274
     21 N3         18.3990    7.4850    2.7330 N.ar      1 <0>        -0.1994
     22 N4         16.8680    5.9390    3.7380 N.ar      1 <0>        -0.1897
     23 O1         15.2270    4.9440    2.3660 O.3       1 <0>        -0.2976
     24 O2         14.4180    3.4600   -2.0810 O.3       1 <0>        -0.3476
     25 H1         14.6501    4.6852   -4.2420 H         1 <0>         0.0233
     26 H2         15.0742    5.9386   -5.4567 H         1 <0>         0.0233
     27 H3         16.3387    5.2862   -4.3601 H         1 <0>         0.0233
     28 H4         15.3883    8.6515   -2.7335 H         1 <0>         0.0233
     29 H5         16.7851    7.7477   -3.4104 H         1 <0>         0.0233
     30 H6         15.5207    8.4001   -4.5070 H         1 <0>         0.0233
     31 H7         15.2019    1.6196   -2.8263 H         1 <0>         0.0529
     32 H8         13.4867    1.5520   -2.2974 H         1 <0>         0.0529
     33 H9         13.9192    2.3616   -3.8415 H         1 <0>         0.0529
     34 H10        10.3371    6.8012   -1.5484 H         1 <0>         0.0618
     35 H11         9.9376    4.3534   -1.6274 H         1 <0>         0.0618
     36 H12        12.6642    7.6583   -1.6208 H         1 <0>         0.0621
     37 H13        11.8184    2.7795   -1.9014 H         1 <0>         0.0643
     38 H14        14.1217    4.5976    0.4566 H         1 <0>         0.0894
     39 H15        16.2616    7.3008   -0.9958 H         1 <0>         0.0320
     40 H16        16.6721    5.5490   -1.3972 H         1 <0>         0.0320
     41 H17        13.9300    6.9490   -3.7109 H         1 <0>         0.0301
     42 H18        15.3826    6.3418   -0.9595 H         1 <0>         0.0355
     43 H19        19.1706    8.4582    0.8539 H         1 <0>         0.1437
     44 H20        18.8775    7.1993   -0.1439 H         1 <0>         0.1437
     45 H21        19.1106    7.8152    4.9191 H         1 <0>         0.1452
     46 H22        17.6531    7.4951    5.5823 H         1 <0>         0.1452
@<TRIPOS>BOND
     1    1   17 1
     2    2   17 1
     3    3   24 1
     4    4    5 ar
     5    4    6 ar
     6    5    7 ar
     7    6   10 ar
     8    7   11 ar
     9    8   12 2
    10    8   23 1
    11    9   12 1
    12    9   18 1
    13   10   11 ar
    14   10   18 1
    15   11   24 1
    16   12   13 1
    17   13   14 ar
    18   13   15 ar
    19   14   19 1
    20   14   21 ar
    21   15   22 ar
    22   15   23 1
    23   16   20 1
    24   16   21 ar
    25   16   22 ar
    26   17   18 1
    27    1   25 1
    28    1   26 1
    29    1   27 1
    30    2   28 1
    31    2   29 1
    32    2   30 1
    33    3   31 1
    34    3   32 1
    35    3   33 1
    36    4   34 1
    37    5   35 1
    38    6   36 1
    39    7   37 1
    40    8   38 1
    41    9   39 1
    42    9   40 1
    43   17   41 1
    44   18   42 1
    45   19   43 1
    46   19   44 1
    47   20   45 1
    48   20   46 1
