@<TRIPOS>MOLECULE
LLX_400_3MAX
   38    40     0     0     0
SMALL
USER_CHARGES

@<TRIPOS>ATOM
      1 C1         63.1940   28.1440    6.3880 C.ar      1 <0>        -0.0617
      2 C2         71.6380   32.1460   -1.0050 C.ar      1 <0>        -0.0617
      3 C3         64.5540   28.0390    6.0880 C.ar      1 <0>        -0.0612
      4 C4         62.2730   28.3410    5.3640 C.ar      1 <0>        -0.0612
      5 C5         71.3670   30.8260   -0.6850 C.ar      1 <0>        -0.0610
      6 C6         70.5940   33.0570   -1.1190 C.ar      1 <0>        -0.0610
      7 C7         65.0120   28.1180    4.7740 C.ar      1 <0>        -0.0540
      8 C8         62.7200   28.4250    4.0480 C.ar      1 <0>        -0.0540
      9 C9         70.0600   30.4160   -0.4870 C.ar      1 <0>        -0.0496
     10 C10        69.2780   32.6580   -0.9160 C.ar      1 <0>        -0.0496
     11 C11        63.7890   27.9790    1.2410 C.ar      1 <0>        -0.0522
     12 C12        64.2210   28.1250   -0.0690 C.ar      1 <0>        -0.0387
     13 C13        65.7920   29.0770    2.0410 C.ar      1 <0>        -0.0310
     14 C14        64.0950   28.3080    3.7300 C.ar      1 <0>        -0.0178
     15 C15        69.0040   31.3170   -0.6050 C.ar      1 <0>         0.0370
     16 C16        64.5660   28.4370    2.3170 C.ar      1 <0>        -0.0160
     17 C17        65.4500   28.7330   -0.3430 C.ar      1 <0>         0.0461
     18 C18        66.2210   29.2180    0.7260 C.ar      1 <0>         0.0551
     19 C19        67.6220   30.8320   -0.3730 C.2       1 <0>         0.2483
     20 N1         65.8820   28.8880   -1.6780 N.pl3     1 <0>        -0.3565
     21 N2         67.4780   29.7880    0.4590 N.am      1 <0>        -0.2799
     22 O1         66.6320   31.3230   -0.8890 O.2       1 <0>        -0.2699
     23 H1         62.8582   28.0725    7.4120 H         1 <0>         0.0618
     24 H2         72.6568   32.4665   -1.1654 H         1 <0>         0.0618
     25 H3         65.2638   27.8939    6.8889 H         1 <0>         0.0618
     26 H4         61.2201   28.4280    5.5880 H         1 <0>         0.0618
     27 H5         72.1757   30.1165   -0.5900 H         1 <0>         0.0618
     28 H6         70.8078   34.0859   -1.3680 H         1 <0>         0.0618
     29 H7         66.0674   28.0334    4.5609 H         1 <0>         0.0624
     30 H8         62.0044   28.5824    3.2546 H         1 <0>         0.0624
     31 H9         69.8563   29.3850   -0.2380 H         1 <0>         0.0625
     32 H10        68.4733   33.3737   -0.9969 H         1 <0>         0.0625
     33 H11        62.8386   27.5049    1.4367 H         1 <0>         0.0624
     34 H12        63.6053   27.7674   -0.8811 H         1 <0>         0.0637
     35 H13        66.3973   29.4573    2.8506 H         1 <0>         0.0643
     36 H14        66.7747   29.3385   -1.6898 H         1 <0>         0.1424
     37 H15        65.9565   27.9895   -2.1105 H         1 <0>         0.1424
     38 H16        68.2886   29.4047    0.9017 H         1 <0>         0.1552
@<TRIPOS>BOND
     1    1    3 ar
     2    1    4 ar
     3    2    5 ar
     4    2    6 ar
     5    3    7 ar
     6    4    8 ar
     7    5    9 ar
     8    6   10 ar
     9    7   14 ar
    10    8   14 ar
    11    9   15 ar
    12   10   15 ar
    13   11   12 ar
    14   11   16 ar
    15   12   17 ar
    16   13   16 ar
    17   13   18 ar
    18   14   16 1
    19   15   19 1
    20   17   18 ar
    21   17   20 1
    22   18   21 1
    23   19   21 am
    24   19   22 2
    25    1   23 1
    26    2   24 1
    27    3   25 1
    28    4   26 1
    29    5   27 1
    30    6   28 1
    31    7   29 1
    32    8   30 1
    33    9   31 1
    34   10   32 1
    35   11   33 1
    36   12   34 1
    37   13   35 1
    38   20   36 1
    39   20   37 1
    40   21   38 1
