@<TRIPOS>MOLECULE
HXA_200_1MV9
   55    54     0     0     0
SMALL
USER_CHARGES

@<TRIPOS>ATOM
      1 C1         61.4530   47.1060   34.2110 C.3       1 <0>        -0.0618
      2 C2         62.8640   47.4980   33.7760 C.3       1 <0>        -0.0376
      3 C3         57.1100   44.4800   29.8230 C.3       1 <0>        -0.0297
      4 C4         55.8630   45.1280   29.2340 C.3       1 <0>        -0.0098
      5 C5         65.3960   45.4470   34.9200 C.3       1 <0>        -0.0165
      6 C6         60.0090   45.6980   30.2290 C.3       1 <0>        -0.0165
      7 C7         65.3440   45.1020   31.6150 C.3       1 <0>        -0.0165
      8 C8         61.1580   48.3010   28.3330 C.3       1 <0>        -0.0165
      9 C9         63.9270   45.9790   28.1220 C.3       1 <0>        -0.0165
     10 C10        63.8630   47.3820   34.8860 C.2       1 <0>        -0.0879
     11 C11        57.6140   45.1940   31.0340 C.2       1 <0>        -0.0873
     12 C12        64.1890   46.1840   35.3970 C.2       1 <0>        -0.0842
     13 C13        58.7650   45.8920   31.0420 C.2       1 <0>        -0.0842
     14 C14        65.0040   44.3630   33.9720 C.2       1 <0>        -0.0839
     15 C15        59.8450   46.1690   28.8210 C.2       1 <0>        -0.0839
     16 C16        64.4960   44.6940   32.7780 C.2       1 <0>        -0.0839
     17 C17        59.9320   47.4490   28.4450 C.2       1 <0>        -0.0839
     18 C18        64.6100   44.9040   30.3190 C.2       1 <0>        -0.0839
     19 C19        62.4160   47.7360   28.9100 C.2       1 <0>        -0.0839
     20 C20        64.8130   45.7780   29.3180 C.2       1 <0>        -0.0839
     21 C21        63.4130   47.3860   28.0820 C.2       1 <0>        -0.0839
     22 C22        54.7120   45.0300   30.2150 C.2       1 <0>         0.0420
     23 O1         53.9310   46.1170   30.1250 O.co2     1 <0>        -0.5498
     24 O2         54.5350   44.1360   30.9850 O.co2     1 <0>        -0.5498
     25 H1         60.7642   47.2098   33.3597 H         1 <0>         0.0233
     26 H2         61.4530   46.0619   34.5572 H         1 <0>         0.0233
     27 H3         61.1258   47.7639   35.0296 H         1 <0>         0.0233
     28 H4         63.1738   46.8306   32.9583 H         1 <0>         0.0305
     29 H5         62.8445   48.5432   33.4336 H         1 <0>         0.0305
     30 H6         56.8630   43.4464   30.1070 H         1 <0>         0.0311
     31 H7         57.9011   44.4914   29.0588 H         1 <0>         0.0311
     32 H8         56.0701   46.1874   29.0224 H         1 <0>         0.0328
     33 H9         55.5907   44.6104   28.3023 H         1 <0>         0.0328
     34 H10        66.0684   46.1499   34.4063 H         1 <0>         0.0350
     35 H11        65.9118   45.0020   35.7837 H         1 <0>         0.0350
     36 H12        60.8248   46.2692   30.6961 H         1 <0>         0.0350
     37 H13        60.2526   44.6254   30.2129 H         1 <0>         0.0350
     38 H14        65.6060   46.1653   31.7189 H         1 <0>         0.0350
     39 H15        66.2575   44.4893   31.6060 H         1 <0>         0.0350
     40 H16        61.3392   48.4715   27.2615 H         1 <0>         0.0350
     41 H17        60.9502   49.2418   28.8638 H         1 <0>         0.0350
     42 H18        64.5047   45.7798   27.2074 H         1 <0>         0.0350
     43 H19        63.0755   45.2854   28.1831 H         1 <0>         0.0350
     44 H20        64.3272   48.2738   35.2805 H         1 <0>         0.0569
     45 H21        57.0304   45.1484   31.9416 H         1 <0>         0.0569
     46 H22        63.5682   45.7469   36.1651 H         1 <0>         0.0572
     47 H23        58.7968   46.7160   31.7394 H         1 <0>         0.0572
     48 H24        65.1283   43.3256   34.2453 H         1 <0>         0.0572
     49 H25        59.6437   45.4299   28.0597 H         1 <0>         0.0572
     50 H26        63.4242   44.6651   32.6486 H         1 <0>         0.0572
     51 H27        58.9992   47.9296   28.1895 H         1 <0>         0.0572
     52 H28        63.9309   44.0736   30.1938 H         1 <0>         0.0572
     53 H29        62.5212   47.6112   29.9776 H         1 <0>         0.0572
     54 H30        65.6976   46.3945   29.3797 H         1 <0>         0.0572
     55 H31        63.8375   48.1064   27.3985 H         1 <0>         0.0572
@<TRIPOS>BOND
     1    1    2 1
     2    2   10 1
     3    3    4 1
     4    3   11 1
     5    4   22 1
     6    5   12 1
     7    5   14 1
     8    6   13 1
     9    6   15 1
    10    7   16 1
    11    7   18 1
    12    8   17 1
    13    8   19 1
    14    9   20 1
    15    9   21 1
    16   10   12 2
    17   11   13 2
    18   14   16 2
    19   15   17 2
    20   18   20 2
    21   19   21 2
    22   22   23 1
    23   22   24 2
    24    1   25 1
    25    1   26 1
    26    1   27 1
    27    2   28 1
    28    2   29 1
    29    3   30 1
    30    3   31 1
    31    4   32 1
    32    4   33 1
    33    5   34 1
    34    5   35 1
    35    6   36 1
    36    6   37 1
    37    7   38 1
    38    7   39 1
    39    8   40 1
    40    8   41 1
    41    9   42 1
    42    9   43 1
    43   10   44 1
    44   11   45 1
    45   12   46 1
    46   13   47 1
    47   14   48 1
    48   15   49 1
    49   16   50 1
    50   17   51 1
    51   18   52 1
    52   19   53 1
    53   20   54 1
    54   21   55 1
