@<TRIPOS>MOLECULE
*****
   52    53     0     0     0
SMALL
USER_CHARGES

@<TRIPOS>ATOM
      1 C1         12.4240   19.4450   22.7230 C.3       1 <0>        -0.0372
      2 C2          7.9580   19.1110   22.2270 C.ar      1 <0>         0.0903
      3 N1          8.1130   22.7200   22.8350 N.am      1 <0>        -0.3058
      4 O1          6.6120   19.0100   22.0640 O.3       1 <0>        -0.3587
      5 C3          8.7640   18.0060   21.9300 C.ar      1 <0>        -0.0168
      6 N2          7.9110   24.3440   25.4130 N.4       1 <0>         0.2383
      7 O2         10.4870   21.5450   23.3030 O.3       1 <0>        -0.3468
      8 C4         10.1480   18.1280   22.0720 C.ar      1 <0>        -0.0507
      9 O3          6.3960   21.3210   23.2770 O.2       1 <0>        -0.2700
     10 C5         10.7110   19.3190   22.5240 C.ar      1 <0>        -0.0193
     11 C6          9.9020   20.4090   22.8400 C.ar      1 <0>         0.0933
     12 C7         10.7470   21.3910   24.7050 C.3       1 <0>         0.0431
     13 C8          8.5110   20.3090   22.7030 C.ar      1 <0>         0.0967
     14 C9          7.5760   21.5070   22.9890 C.2       1 <0>         0.2493
     15 C10         7.3610   23.9750   23.0350 C.3       1 <0>         0.0548
     16 C11         6.8120   24.0730   24.4630 C.3       1 <0>        -0.0048
     17 C12         5.8560   25.2590   24.5600 C.3       1 <0>        -0.0034
     18 C13         6.7760   26.3970   24.9700 C.3       1 <0>        -0.0074
     19 C14         7.7120   25.7060   25.9500 C.3       1 <0>        -0.0314
     20 C15         7.8450   23.3630   26.5050 C.3       1 <0>        -0.0345
     21 C16         9.2140   23.1980   27.1480 C.3       1 <0>        -0.0245
     22 C17         8.2410   16.6670   21.3800 C.3       1 <0>        -0.0281
     23 C18         7.2470   15.9870   22.3250 C.3       1 <0>        -0.0612
     24 H1         12.8763   19.8101   21.7891 H         1 <0>         0.0278
     25 H2         12.6475   20.1490   23.5381 H         1 <0>         0.0278
     26 H3         12.8382   18.4560   22.9687 H         1 <0>         0.0278
     27 H4          9.0753   22.7817   22.5702 H         1 <0>         0.1492
     28 H5          6.1892   19.7747   22.4368 H         1 <0>         0.2174
     29 H6          8.8025   24.2756   24.9652 H         1 <0>         0.2037
     30 H7         10.7870   17.2918   21.8293 H         1 <0>         0.0625
     31 H8         11.2211   22.3046   25.0930 H         1 <0>         0.0529
     32 H9          9.7999   21.2156   25.2363 H         1 <0>         0.0529
     33 H10        11.4193   20.5345   24.8611 H         1 <0>         0.0529
     34 H11         8.0340   24.8259   22.8533 H         1 <0>         0.0518
     35 H12         6.5192   24.0020   22.3275 H         1 <0>         0.0518
     36 H13         6.3088   23.1243   24.7012 H         1 <0>         0.0867
     37 H14         5.3581   25.4618   23.6003 H         1 <0>         0.0322
     38 H15         5.0643   25.0857   25.3038 H         1 <0>         0.0322
     39 H16         7.3166   26.8215   24.1112 H         1 <0>         0.0319
     40 H17         6.2251   27.2257   25.4387 H         1 <0>         0.0319
     41 H18         8.6698   26.2423   26.0200 H         1 <0>         0.0814
     42 H19         7.2670   25.6686   26.9553 H         1 <0>         0.0814
     43 H20         7.1288   23.7128   27.2631 H         1 <0>         0.0812
     44 H21         7.5153   22.3941   26.1018 H         1 <0>         0.0812
     45 H22         9.1506   22.4618   27.9629 H         1 <0>         0.0281
     46 H23         9.9337   22.8482   26.3932 H         1 <0>         0.0281
     47 H24         9.5477   24.1649   27.5527 H         1 <0>         0.0281
     48 H25         7.7342   16.8591   20.4228 H         1 <0>         0.0311
     49 H26         9.0981   15.9931   21.2342 H         1 <0>         0.0311
     50 H27         6.9087   15.0388   21.8817 H         1 <0>         0.0233
     51 H28         7.7366   15.7866   23.2894 H         1 <0>         0.0233
     52 H29         6.3814   16.6471   22.4832 H         1 <0>         0.0233
@<TRIPOS>BOND
     1    5   22 1
     2   22   23 1
     3    5    8 ar
     4    2    5 ar
     5    2    4 1
     6    8   10 ar
     7    2   13 ar
     8    1   10 1
     9   10   11 ar
    10   11   13 ar
    11   13   14 1
    12    3   14 am
    13    3   15 1
    14    7   11 1
    15    9   14 2
    16   15   16 1
    17    7   12 1
    18   16   17 1
    19    6   16 1
    20   17   18 1
    21   18   19 1
    22    6   19 1
    23    6   20 1
    24   20   21 1
    25    1   24 1
    26    1   25 1
    27    1   26 1
    28    3   27 1
    29    4   28 1
    30    6   29 1
    31    8   30 1
    32   12   31 1
    33   12   32 1
    34   12   33 1
    35   15   34 1
    36   15   35 1
    37   16   36 1
    38   17   37 1
    39   17   38 1
    40   18   39 1
    41   18   40 1
    42   19   41 1
    43   19   42 1
    44   20   43 1
    45   20   44 1
    46   21   45 1
    47   21   46 1
    48   21   47 1
    49   22   48 1
    50   22   49 1
    51   23   50 1
    52   23   51 1
    53   23   52 1
