@<TRIPOS>MOLECULE
*****
   85    88     0     0     0
SMALL
USER_CHARGES

@<TRIPOS>ATOM
      1 C1         13.8310  -24.2130    2.5450 C.3       1 <0>        -0.0378
      2 C2         15.6230  -30.0750    8.5430 C.3       1 <0>        -0.0357
      3 C3         14.2790  -28.0370    8.7600 C.3       1 <0>        -0.0357
      4 C4         13.8700  -29.6580    6.8510 C.3       1 <0>        -0.0357
      5 C5         17.6120  -17.7410   -1.2710 C.3       1 <0>         0.0064
      6 C6         12.1330  -24.8800    5.8470 C.ar      1 <0>        -0.0614
      7 C7         12.4980  -23.7600    6.5800 C.ar      1 <0>        -0.0599
      8 C8         12.5820  -25.0100    4.5390 C.ar      1 <0>        -0.0570
      9 C9         13.3070  -22.7860    6.0050 C.ar      1 <0>        -0.0348
     10 C10        21.9950  -21.9240   -0.0390 C.ar      1 <0>        -0.0426
     11 C11        21.7930  -23.1800    2.0090 C.ar      1 <0>        -0.0426
     12 C12        20.7670  -21.3190    0.2180 C.ar      1 <0>        -0.0394
     13 C13        20.5650  -22.5820    2.2640 C.ar      1 <0>        -0.0394
     14 C14        17.4070  -21.4150   -0.7860 C.2       1 <0>         0.0478
     15 C15        16.7670  -19.8960   -2.2880 C.2       1 <0>         0.0877
     16 C16        16.4070  -25.2970    4.9070 C.3       1 <0>        -0.0327
     17 C17        17.9820  -24.3610    6.6500 C.3       1 <0>        -0.0327
     18 C18        17.0520  -26.6730    5.1200 C.3       1 <0>         0.0171
     19 C19        18.4950  -25.7700    6.8760 C.3       1 <0>         0.0171
     20 C20        18.2370  -21.1160    2.9750 C.3       1 <0>         0.0297
     21 C21        17.1660  -22.2250    3.0520 C.3       1 <0>         0.0453
     22 C22        18.5240  -19.8630    0.8450 C.3       1 <0>         0.0520
     23 C23        16.6010  -22.8410    5.4660 C.3       1 <0>         0.0326
     24 C24        23.6390  -23.4400    0.6460 C.1       1 <0>         0.0992
     25 C25        13.3790  -24.0300    3.9620 C.ar      1 <0>        -0.0239
     26 C26        22.5110  -22.8530    0.8660 C.ar      1 <0>         0.0519
     27 C27        20.0570  -21.6280    1.3800 C.ar      1 <0>         0.0301
     28 C28        13.7710  -22.9140    4.6940 C.ar      1 <0>         0.1112
     29 C29        17.7780  -20.1310   -0.4260 C.2       1 <0>         0.0469
     30 C30        17.3590  -24.1500    5.2770 C.3       1 <0>        -0.0211
     31 C31        16.7930  -27.3680    7.4020 C.2       1 <0>         0.3553
     32 C32        14.8910  -28.9940    7.7630 C.3       1 <0>         0.0721
     33 N1         24.6380  -24.0110    0.4590 N.1       1 <0>        -0.1909
     34 N2         16.7770  -21.2240   -1.9710 N.2       1 <0>        -0.2463
     35 N3         17.3980  -19.2110   -1.3190 N.pl3     1 <0>        -0.2951
     36 N4         17.4020  -26.6650    6.5400 N.am      1 <0>        -0.2776
     37 N5         18.7890  -21.0490    1.6040 N.pl3     1 <0>        -0.3227
     38 N6         16.3410  -22.0010    4.2810 N.pl3     1 <0>        -0.2323
     39 O1         17.0440  -27.3730    8.6050 O.2       1 <0>        -0.2411
     40 O2         14.4850  -20.5320    4.9220 O.2       1 <0>        -0.1501
     41 O3         14.3880  -21.4650    2.6720 O.2       1 <0>        -0.1501
     42 O4         15.7560  -28.2360    6.9230 O.3       1 <0>        -0.2939
     43 S1         14.7260  -21.7450    4.0960 S.o2      1 <0>         0.0709
     44 H1         13.0990  -23.7550    1.8640 H         1 <0>         0.0278
     45 H2         14.8100  -23.7310    2.4080 H         1 <0>         0.0278
     46 H3         13.9160  -25.2870    2.3230 H         1 <0>         0.0278
     47 H4         16.0800  -30.7880    7.8410 H         1 <0>         0.0257
     48 H5         16.4080  -29.6140    9.1600 H         1 <0>         0.0257
     49 H6         14.9100  -30.6050    9.1920 H         1 <0>         0.0257
     50 H7         13.7410  -27.2420    8.2230 H         1 <0>         0.0257
     51 H8         13.5760  -28.5820    9.4070 H         1 <0>         0.0257
     52 H9         15.0740  -27.5910    9.3750 H         1 <0>         0.0257
     53 H10        13.3320  -28.8870    6.2800 H         1 <0>         0.0257
     54 H11        14.3860  -30.3360    6.1560 H         1 <0>         0.0257
     55 H12        13.1540  -30.2310    7.4580 H         1 <0>         0.0257
     56 H13        18.1600  -17.4790   -0.3540 H         1 <0>         0.0432
     57 H14        18.1960  -17.4270   -2.1490 H         1 <0>         0.0432
     58 H15        16.6390  -17.2290   -1.2750 H         1 <0>         0.0432
     59 H16        11.5070  -25.6420    6.2880 H         1 <0>         0.0618
     60 H17        12.1540  -23.6450    7.5970 H         1 <0>         0.0618
     61 H18        12.3080  -25.8830    3.9640 H         1 <0>         0.0621
     62 H19        13.5810  -21.9150    6.5820 H         1 <0>         0.0637
     63 H20        22.5450  -21.6750   -0.9340 H         1 <0>         0.0631
     64 H21        22.1920  -23.9040    2.7040 H         1 <0>         0.0631
     65 H22        20.3620  -20.6070   -0.4860 H         1 <0>         0.0636
     66 H23        20.0040  -22.8550    3.1450 H         1 <0>         0.0636
     67 H24        17.5770  -22.3400   -0.2550 H         1 <0>         0.0846
     68 H25        16.3240  -19.4660   -3.1740 H         1 <0>         0.1002
     69 H26        16.1330  -25.1980    3.8460 H         1 <0>         0.0284
     70 H27        15.5110  -25.2280    5.5410 H         1 <0>         0.0284
     71 H28        17.2140  -24.1510    7.4090 H         1 <0>         0.0284
     72 H29        18.8310  -23.6680    6.7500 H         1 <0>         0.0284
     73 H30        16.3540  -27.4890    4.8800 H         1 <0>         0.0465
     74 H31        17.9400  -26.8060    4.4850 H         1 <0>         0.0465
     75 H32        19.3670  -25.9700    6.2350 H         1 <0>         0.0465
     76 H33        18.7960  -25.9070    7.9250 H         1 <0>         0.0465
     77 H34        17.7800  -20.1490    3.2320 H         1 <0>         0.0480
     78 H35        19.0470  -21.3410    3.6840 H         1 <0>         0.0480
     79 H36        16.5240  -22.1860    2.1600 H         1 <0>         0.0493
     80 H37        17.6520  -23.2100    3.1030 H         1 <0>         0.0493
     81 H38        19.4860  -19.3960    0.5880 H         1 <0>         0.0526
     82 H39        17.9170  -19.1860    1.4640 H         1 <0>         0.0526
     83 H40        15.6190  -23.1050    5.8850 H         1 <0>         0.0481
     84 H41        17.1980  -22.2300    6.1590 H         1 <0>         0.0481
     85 H42        18.0960  -24.1220    4.4600 H         1 <0>         0.0317
@<TRIPOS>BOND
     1   15   68 1
     2   15   34 2
     3   15   35 1
     4    5   57 1
     5   14   34 1
     6    5   35 1
     7   29   35 1
     8    5   58 1
     9    5   56 1
    10   10   63 1
    11   14   29 2
    12   14   67 1
    13   12   65 1
    14   22   29 1
    15   10   12 ar
    16   10   26 ar
    17   12   27 ar
    18   24   33 3
    19   22   81 1
    20   24   26 1
    21   22   82 1
    22   22   37 1
    23   11   26 ar
    24   27   37 1
    25   13   27 ar
    26   20   37 1
    27    1   44 1
    28   11   13 ar
    29   11   64 1
    30   21   79 1
    31   13   66 1
    32    1   46 1
    33    1   45 1
    34    1   25 1
    35   41   43 2
    36   20   21 1
    37   20   77 1
    38   20   78 1
    39   21   80 1
    40   21   38 1
    41   16   69 1
    42    8   25 ar
    43   25   28 ar
    44    8   61 1
    45   38   43 1
    46   28   43 1
    47   40   43 2
    48   23   38 1
    49   30   85 1
    50   18   74 1
    51    6    8 ar
    52    9   28 ar
    53   18   73 1
    54   16   18 1
    55   16   30 1
    56   16   70 1
    57   18   36 1
    58   23   30 1
    59   17   30 1
    60   23   83 1
    61   23   84 1
    62    6   59 1
    63    6    7 ar
    64    7    9 ar
    65    9   62 1
    66    4   54 1
    67   19   75 1
    68    4   53 1
    69   19   36 1
    70   31   36 am
    71    7   60 1
    72   17   72 1
    73   17   19 1
    74   17   71 1
    75    4   55 1
    76    4   32 1
    77   19   76 1
    78   31   42 1
    79   32   42 1
    80   31   39 2
    81    2   32 1
    82    3   32 1
    83    2   47 1
    84    3   50 1
    85    2   48 1
    86    2   49 1
    87    3   52 1
    88    3   51 1
